<?xml version="1.0" encoding="UTF-8"?>

<!-- generated on Fri Apr 17 11:39:02 2020 by Eclipse SUMO duarouter Version 1.5.0
<configuration xmlns:xsi="http://www.w3.org/2001/XMLSchema-instance" xsi:noNamespaceSchemaLocation="http://sumo.dlr.de/xsd/duarouterConfiguration.xsd">

    <input>
        <net-file value="/home/leo/sumo/tools/2020-04-17-11-38-58/osm.net.xml"/>
        <route-files value="/home/leo/sumo/tools/2020-04-17-11-38-58/osm.passenger.trips.xml"/>
    </input>

    <output>
        <output-file value="/home/leo/sumo/tools/2020-04-17-11-38-58/osm.passenger.trips.xml.tmp"/>
        <write-trips value="true"/>
    </output>

    <time>
        <begin value="0"/>
        <end value="3600.0"/>
    </time>

    <report>
        <no-warnings value="true"/>
        <ignore-errors value="true"/>
        <no-step-log value="true"/>
    </report>

</configuration>
-->

<routes xmlns:xsi="http://www.w3.org/2001/XMLSchema-instance" xsi:noNamespaceSchemaLocation="http://sumo.dlr.de/xsd/routes_file.xsd">
    <vType id="veh_passenger" vClass="passenger"/>
    <trip id="veh3" type="veh_passenger" depart="1.80" departLane="best" departSpeed="max" from="383241555" to="-158364458#1"/>
    <trip id="veh5" type="veh_passenger" depart="3.00" departLane="best" departSpeed="max" from="-383241557#1" to="256727222#1"/>
    <trip id="veh10" type="veh_passenger" depart="5.99" departLane="best" departSpeed="max" from="28949541" to="289048413"/>
    <trip id="veh12" type="veh_passenger" depart="7.19" departLane="best" departSpeed="max" from="28949541" to="289048413"/>
    <trip id="veh14" type="veh_passenger" depart="8.39" departLane="best" from="138080037#1" to="256727240#0"/>
    <trip id="veh17" type="veh_passenger" depart="10.19" departLane="best" from="273443765#3" to="-138080036#0"/>
    <trip id="veh18" type="veh_passenger" depart="10.79" departLane="best" departSpeed="max" from="-383241557#1" to="-448195260#0"/>
    <trip id="veh19" type="veh_passenger" depart="11.39" departLane="best" from="-251609782#1" to="-286652481#2"/>
    <trip id="veh20" type="veh_passenger" depart="11.99" departLane="best" from="-251609789#4" to="-383241555"/>
    <trip id="veh25" type="veh_passenger" depart="14.99" departLane="best" departSpeed="max" from="-286652481#3" to="138080037#1"/>
    <trip id="veh26" type="veh_passenger" depart="15.58" departLane="best" from="94874360#2" to="286652481#2"/>
    <trip id="veh27" type="veh_passenger" depart="16.18" departLane="best" from="29252071" to="383241557#1"/>
    <trip id="veh28" type="veh_passenger" depart="16.78" departLane="best" departSpeed="max" from="-383241557#1" to="-138076301"/>
    <trip id="veh33" type="veh_passenger" depart="19.78" departLane="best" departSpeed="max" from="-519981167#3" to="-29113164#0"/>
    <trip id="veh36" type="veh_passenger" depart="21.58" departLane="best" departSpeed="max" from="158364458#0" to="-265741851"/>
    <trip id="veh37" type="veh_passenger" depart="22.18" departLane="best" from="94874405" to="256727237"/>
    <trip id="veh38" type="veh_passenger" depart="22.78" departLane="best" from="-256727222#1" to="273443765#4"/>
    <trip id="veh39" type="veh_passenger" depart="23.38" departLane="best" departSpeed="max" from="-203126694" to="138080037#1"/>
    <trip id="veh40" type="veh_passenger" depart="23.98" departLane="best" from="94874388#1" to="256727239#3"/>
    <trip id="veh44" type="veh_passenger" depart="26.37" departLane="best" from="-256727222#1" to="203126694"/>
    <trip id="veh56" type="veh_passenger" depart="33.57" departLane="best" from="-217703429" to="29252069#1"/>
    <trip id="veh58" type="veh_passenger" depart="34.77" departLane="best" from="251609784" to="256727240#0"/>
    <trip id="veh62" type="veh_passenger" depart="37.16" departLane="best" from="94874388#1" to="286652481#3"/>
    <trip id="veh65" type="veh_passenger" depart="38.96" departLane="best" from="-217720906" to="273443765#5"/>
    <trip id="veh67" type="veh_passenger" depart="40.16" departLane="best" departSpeed="max" from="330165462#0" to="-158364458#0"/>
    <trip id="veh68" type="veh_passenger" depart="40.76" departLane="best" from="-448195259" to="286653193"/>
    <trip id="veh69" type="veh_passenger" depart="41.36" departLane="best" from="-383241557#0" to="-256727222#0"/>
    <trip id="veh71" type="veh_passenger" depart="42.56" departLane="best" from="251609782#2" to="383241557#1"/>
    <trip id="veh73" type="veh_passenger" depart="43.76" departLane="best" from="-251609789#3" to="187803815#1"/>
    <trip id="veh75" type="veh_passenger" depart="44.96" departLane="best" from="94874360#1" to="-251609782#0"/>
    <trip id="veh80" type="veh_passenger" depart="47.95" departLane="best" from="217703429" to="448195260#1"/>
    <trip id="veh85" type="veh_passenger" depart="50.95" departLane="best" from="251609789#4" to="-265741851"/>
    <trip id="veh86" type="veh_passenger" depart="51.55" departLane="best" departSpeed="max" from="158364458#0" to="-138949029#1"/>
    <trip id="veh91" type="veh_passenger" depart="54.55" departLane="best" from="-286652481#2" to="-448195260#1"/>
    <trip id="veh97" type="veh_passenger" depart="58.14" departLane="best" departSpeed="max" from="265741850" to="286653193"/>
    <trip id="veh99" type="veh_passenger" depart="59.34" departLane="best" departSpeed="max" from="265741850" to="273443765#2"/>
    <trip id="veh102" type="veh_passenger" depart="61.14" departLane="best" from="-448195259" to="158364458#1"/>
    <trip id="veh105" type="veh_passenger" depart="62.94" departLane="best" from="-217720906" to="251609782#1"/>
    <trip id="veh106" type="veh_passenger" depart="63.54" departLane="best" from="-217720906" to="-265741851"/>
    <trip id="veh109" type="veh_passenger" depart="65.34" departLane="best" departSpeed="max" from="138076301" to="-256727222#0"/>
    <trip id="veh115" type="veh_passenger" depart="68.93" departLane="best" from="-251609789#6" to="256727240#0"/>
    <trip id="veh121" type="veh_passenger" depart="72.53" departLane="best" from="-138076298#0" to="383241557#1"/>
    <trip id="veh125" type="veh_passenger" depart="74.93" departLane="best" from="383241558#1" to="256727240#0"/>
    <trip id="veh127" type="veh_passenger" depart="76.13" departLane="best" from="-286652481#0" to="-251609789#5"/>
    <trip id="veh132" type="veh_passenger" depart="79.12" departLane="best" departSpeed="max" from="158364458#0" to="273443765#2"/>
    <trip id="veh150" type="veh_passenger" depart="89.91" departLane="best" from="-251609789#6" to="203126694"/>
    <trip id="veh157" type="veh_passenger" depart="94.11" departLane="best" from="286652481#2" to="-448195260#2"/>
    <trip id="veh159" type="veh_passenger" depart="95.31" departLane="best" departSpeed="max" from="158364458#0" to="-448195260#1"/>
    <trip id="veh161" type="veh_passenger" depart="96.51" departLane="best" from="448195260#2" to="286653193"/>
    <trip id="veh164" type="veh_passenger" depart="98.30" departLane="best" from="187803815#1" to="-265741851"/>
    <trip id="veh173" type="veh_passenger" depart="103.70" departLane="best" from="158367908#2" to="273443765#5"/>
    <trip id="veh177" type="veh_passenger" depart="106.10" departLane="best" from="-251609789#6" to="187803815#0"/>
    <trip id="veh179" type="veh_passenger" depart="107.30" departLane="best" departSpeed="max" from="256727222#0" to="-138080037#1"/>
    <trip id="veh183" type="veh_passenger" depart="109.69" departLane="best" from="286652481#0" to="256727222#1"/>
    <trip id="veh186" type="veh_passenger" depart="111.49" departLane="best" from="-448195260#1" to="286652481#0"/>
    <trip id="veh189" type="veh_passenger" depart="113.29" departLane="best" from="256727239#2" to="-256727222#0"/>
    <trip id="veh192" type="veh_passenger" depart="115.09" departLane="best" departSpeed="max" from="158364458#0" to="256727239#3"/>
    <trip id="veh196" type="veh_passenger" depart="117.49" departLane="best" departSpeed="max" from="330165462#0" to="383241557#0"/>
    <trip id="veh197" type="veh_passenger" depart="118.08" departLane="best" from="138949029#1" to="-138076298#1"/>
    <trip id="veh201" type="veh_passenger" depart="120.48" departLane="best" from="187803815#0" to="-138076301"/>
    <trip id="veh202" type="veh_passenger" depart="121.08" departLane="best" from="138076298#1" to="286653193"/>
    <trip id="veh206" type="veh_passenger" depart="123.48" departLane="best" from="-138080036#0" to="286652481#2"/>
    <trip id="veh208" type="veh_passenger" depart="124.68" departLane="best" departSpeed="max" from="-203126694" to="138080037#1"/>
    <trip id="veh212" type="veh_passenger" depart="127.08" departLane="best" from="-448195260#2" to="-158364458#0"/>
    <trip id="veh213" type="veh_passenger" depart="127.68" departLane="best" from="-138076298#3" to="256727239#3"/>
    <trip id="veh217" type="veh_passenger" depart="130.07" departLane="best" from="-138076298#3" to="-256727222#0"/>
    <trip id="veh223" type="veh_passenger" depart="133.67" departLane="best" from="-251609789#6" to="-138076298#4"/>
    <trip id="veh227" type="veh_passenger" depart="136.07" departLane="best" from="-251609789#5" to="383241557#1"/>
    <trip id="veh231" type="veh_passenger" depart="138.46" departLane="best" departSpeed="max" from="256727222#0" to="-94874360#1"/>
    <trip id="veh233" type="veh_passenger" depart="139.66" departLane="best" departSpeed="max" from="271086459" to="403150002"/>
    <trip id="veh236" type="veh_passenger" depart="141.46" departLane="best" from="256727239#1" to="251609789#6"/>
    <trip id="veh241" type="veh_passenger" depart="144.46" departLane="best" from="138080037#1" to="-138076301"/>
    <trip id="veh247" type="veh_passenger" depart="148.06" departLane="best" departSpeed="max" from="273443765#0" to="286652481#3"/>
    <trip id="veh248" type="veh_passenger" depart="148.65" departLane="best" from="251609793" to="383241558#1"/>
    <trip id="veh249" type="veh_passenger" depart="149.25" departLane="best" from="-251609789#2" to="-265741851"/>
    <trip id="veh252" type="veh_passenger" depart="151.05" departLane="best" from="256727239#1" to="29252071"/>
    <trip id="veh253" type="veh_passenger" depart="151.65" departLane="best" departSpeed="max" from="-286653193" to="-265741851"/>
    <trip id="veh259" type="veh_passenger" depart="155.25" departLane="best" from="273443765#1" to="-251609789#5"/>
    <trip id="veh260" type="veh_passenger" depart="155.85" departLane="best" departSpeed="max" from="330165462#0" to="251609789#6"/>
    <trip id="veh262" type="veh_passenger" depart="157.05" departLane="best" from="251609782#1" to="203126694"/>
    <trip id="veh263" type="veh_passenger" depart="157.65" departLane="best" departSpeed="max" from="-286653193" to="-138080037#1"/>
    <trip id="veh265" type="veh_passenger" depart="158.84" departLane="best" from="-251609782#0" to="273443765#5"/>
    <trip id="veh266" type="veh_passenger" depart="159.44" departLane="best" departSpeed="max" from="-203126694" to="-256727222#0"/>
    <trip id="veh270" type="veh_passenger" depart="161.84" departLane="best" from="256727222#1" to="217703429"/>
    <trip id="veh271" type="veh_passenger" depart="162.44" departLane="best" from="217703429" to="448195260#1"/>
    <trip id="veh273" type="veh_passenger" depart="163.64" departLane="best" departSpeed="max" from="271086459" to="271086459"/>
    <trip id="veh275" type="veh_passenger" depart="164.84" departLane="best" from="-138076298#0" to="217703429"/>
    <trip id="veh276" type="veh_passenger" depart="165.44" departLane="best" departSpeed="max" from="265741850" to="-448195260#0"/>
    <trip id="veh278" type="veh_passenger" depart="166.64" departLane="best" from="273443765#3" to="251609782#0"/>
    <trip id="veh282" type="veh_passenger" depart="169.03" departLane="best" departSpeed="max" from="271086462" to="52246104"/>
    <trip id="veh288" type="veh_passenger" depart="172.63" departLane="best" from="448195260#2" to="251609793"/>
    <trip id="veh289" type="veh_passenger" depart="173.23" departLane="best" from="251609793" to="-158364458#0"/>
    <trip id="veh290" type="veh_passenger" depart="173.83" departLane="best" from="-138949029#2" to="203126694"/>
    <trip id="veh297" type="veh_passenger" depart="178.03" departLane="best" from="251609782#2" to="286652481#3"/>
    <trip id="veh300" type="veh_passenger" depart="179.82" departLane="best" from="251609793" to="-217703429"/>
    <trip id="veh303" type="veh_passenger" depart="181.62" departLane="best" departSpeed="max" from="-52246104" to="8035865#2"/>
    <trip id="veh307" type="veh_passenger" depart="184.02" departLane="best" from="94874360#2" to="286652481#3"/>
    <trip id="veh313" type="veh_passenger" depart="187.62" departLane="best" from="-256727242#2" to="92837394#2"/>
    <trip id="veh315" type="veh_passenger" depart="188.82" departLane="best" departSpeed="max" from="-286652481#3" to="256727240#0"/>
    <trip id="veh320" type="veh_passenger" depart="191.81" departLane="best" from="286652481#0" to="256727222#1"/>
    <trip id="veh327" type="veh_passenger" depart="196.01" departLane="best" from="251609789#5" to="-256727222#0"/>
    <trip id="veh328" type="veh_passenger" depart="196.61" departLane="best" from="256727239#1" to="-94874360#2"/>
    <trip id="veh334" type="veh_passenger" depart="200.20" departLane="best" departSpeed="max" from="289048418#0" to="289048413"/>
    <trip id="veh337" type="veh_passenger" depart="202.00" departLane="best" from="-138949029#1" to="251609793"/>
    <trip id="veh345" type="veh_passenger" depart="206.80" departLane="best" from="286652481#0" to="29252069#1"/>
    <trip id="veh347" type="veh_passenger" depart="208.00" departLane="best" from="-217703429" to="273443765#5"/>
    <trip id="veh356" type="veh_passenger" depart="213.39" departLane="best" departSpeed="max" from="330165462#0" to="273443765#2"/>
    <trip id="veh361" type="veh_passenger" depart="216.39" departLane="best" from="383241558#0" to="286653193"/>
    <trip id="veh362" type="veh_passenger" depart="216.99" departLane="best" departSpeed="max" from="-286652481#3" to="203126694"/>
    <trip id="veh373" type="veh_passenger" depart="223.58" departLane="best" departSpeed="max" from="265741850" to="138076298#0"/>
    <trip id="veh375" type="veh_passenger" depart="224.78" departLane="best" departSpeed="max" from="271086462" to="289048413"/>
    <trip id="veh380" type="veh_passenger" depart="227.78" departLane="best" departSpeed="max" from="-52246104" to="289048418#2"/>
    <trip id="veh381" type="veh_passenger" depart="228.38" departLane="best" departSpeed="max" from="-286653193" to="-251609789#6"/>
    <trip id="veh385" type="veh_passenger" depart="230.77" departLane="best" from="138076298#1" to="-251609789#2"/>
    <trip id="veh390" type="veh_passenger" depart="233.77" departLane="best" departSpeed="max" from="138076301" to="383241558#1"/>
    <trip id="veh391" type="veh_passenger" depart="234.37" departLane="best" from="-138076298#2" to="256727239#3"/>
    <trip id="veh395" type="veh_passenger" depart="236.77" departLane="best" from="-251609789#6" to="-286652481#2"/>
    <trip id="veh398" type="veh_passenger" depart="238.57" departLane="best" departSpeed="max" from="-383241557#1" to="-138949029#2"/>
    <trip id="veh407" type="veh_passenger" depart="243.96" departLane="best" departSpeed="max" from="138076301" to="203126694"/>
    <trip id="veh409" type="veh_passenger" depart="245.16" departLane="best" from="256727242#1" to="92837394#2"/>
    <trip id="veh410" type="veh_passenger" depart="245.76" departLane="best" departSpeed="max" from="138076301" to="158367908#2"/>
    <trip id="veh413" type="veh_passenger" depart="247.56" departLane="best" departSpeed="max" from="265741850" to="-138076298#3"/>
    <trip id="veh415" type="veh_passenger" depart="248.76" departLane="best" from="-217703429" to="383241557#0"/>
    <trip id="veh422" type="veh_passenger" depart="252.95" departLane="best" from="-138076298#2" to="383241558#1"/>
    <trip id="veh424" type="veh_passenger" depart="254.15" departLane="best" departSpeed="max" from="-286653193" to="-138080037#1"/>
    <trip id="veh432" type="veh_passenger" depart="258.95" departLane="best" departSpeed="max" from="273443765#0" to="251609789#6"/>
    <trip id="veh435" type="veh_passenger" depart="260.74" departLane="best" from="256727238" to="251609782#0"/>
    <trip id="veh436" type="veh_passenger" depart="261.34" departLane="best" departSpeed="max" from="265741850" to="-251609782#0"/>
    <trip id="veh437" type="veh_passenger" depart="261.94" departLane="best" from="273443765#2" to="448195259"/>
    <trip id="veh439" type="veh_passenger" depart="263.14" departLane="best" from="286652481#2" to="-265741851"/>
    <trip id="veh441" type="veh_passenger" depart="264.34" departLane="best" from="138076298#1" to="251609782#0"/>
    <trip id="veh444" type="veh_passenger" depart="266.14" departLane="best" from="138080036#0" to="-256727222#0"/>
    <trip id="veh450" type="veh_passenger" depart="269.74" departLane="best" from="-94874360#2" to="-251609789#4"/>
    <trip id="veh452" type="veh_passenger" depart="270.93" departLane="best" departSpeed="max" from="265741850" to="138076298#0"/>
    <trip id="veh456" type="veh_passenger" depart="273.33" departLane="best" departSpeed="max" from="138076301" to="29252071"/>
    <trip id="veh462" type="veh_passenger" depart="276.93" departLane="best" departSpeed="max" from="158364458#0" to="-256727222#0"/>
    <trip id="veh468" type="veh_passenger" depart="280.53" departLane="best" from="-251609784" to="-138949029#0"/>
    <trip id="veh469" type="veh_passenger" depart="281.12" departLane="best" departSpeed="max" from="-286652481#3" to="273443765#2"/>
    <trip id="veh473" type="veh_passenger" depart="283.52" departLane="best" departSpeed="max" from="273443765#0" to="251609789#6"/>
    <trip id="veh476" type="veh_passenger" depart="285.32" departLane="best" from="-29252069#1" to="-256727222#0"/>
    <trip id="veh478" type="veh_passenger" depart="286.52" departLane="best" departSpeed="max" from="-286653193" to="138080037#1"/>
    <trip id="veh479" type="veh_passenger" depart="287.12" departLane="best" from="273443765#3" to="251609793"/>
    <trip id="veh486" type="veh_passenger" depart="291.31" departLane="best" departSpeed="max" from="271086459" to="403150002-AddedOnRampEdge"/>
    <trip id="veh492" type="veh_passenger" depart="294.91" departLane="best" departSpeed="max" from="-286652481#3" to="256727237"/>
    <trip id="veh494" type="veh_passenger" depart="296.11" departLane="best" from="383241558#1" to="138076298#0"/>
    <trip id="veh497" type="veh_passenger" depart="297.91" departLane="best" departSpeed="max" from="265741850" to="29252069#1"/>
    <trip id="veh503" type="veh_passenger" depart="301.50" departLane="best" from="-217703429" to="203126694"/>
    <trip id="veh505" type="veh_passenger" depart="302.70" departLane="best" departSpeed="max" from="-203126694" to="256727222#1"/>
    <trip id="veh508" type="veh_passenger" depart="304.50" departLane="best" departSpeed="max" from="330165462#0" to="273443765#1"/>
    <trip id="veh509" type="veh_passenger" depart="305.10" departLane="best" departSpeed="max" from="256727222#0" to="251609782#2"/>
    <trip id="veh511" type="veh_passenger" depart="306.30" departLane="best" departSpeed="max" from="383241555" to="217703429"/>
    <trip id="veh514" type="veh_passenger" depart="308.10" departLane="best" from="-286652481#0" to="-138949029#2"/>
    <trip id="veh518" type="veh_passenger" depart="310.50" departLane="best" from="-448195260#1" to="203126694"/>
    <trip id="veh522" type="veh_passenger" depart="312.89" departLane="best" departSpeed="max" from="-203126694" to="-217720906"/>
    <trip id="veh523" type="veh_passenger" depart="313.49" departLane="best" departSpeed="max" from="273443765#0" to="-448195259"/>
    <trip id="veh531" type="veh_passenger" depart="318.29" departLane="best" from="138080036#0" to="383241558#1"/>
    <trip id="veh534" type="veh_passenger" depart="320.09" departLane="best" departSpeed="max" from="-286653193" to="-265741851"/>
    <trip id="veh536" type="veh_passenger" depart="321.29" departLane="best" departSpeed="max" from="-383241557#1" to="-256727222#0"/>
    <trip id="veh538" type="veh_passenger" depart="322.48" departLane="best" from="-251609789#4" to="383241557#1"/>
    <trip id="veh545" type="veh_passenger" depart="326.68" departLane="best" from="217703429" to="-448195259"/>
    <trip id="veh552" type="veh_passenger" depart="330.88" departLane="best" from="138949029#1" to="256727239#3"/>
    <trip id="veh554" type="veh_passenger" depart="332.08" departLane="best" from="-448195260#2" to="286652481#2"/>
    <trip id="veh558" type="veh_passenger" depart="334.47" departLane="best" from="383241558#1" to="-256727222#0"/>
    <trip id="veh560" type="veh_passenger" depart="335.67" departLane="best" departSpeed="max" from="-383241557#1" to="217703429"/>
    <trip id="veh561" type="veh_passenger" depart="336.27" departLane="best" departSpeed="max" from="-203126694" to="251609793"/>
    <trip id="veh562" type="veh_passenger" depart="336.87" departLane="best" from="138080036#0" to="-138076301"/>
    <trip id="veh573" type="veh_passenger" depart="343.46" departLane="best" departSpeed="max" from="159322742" to="403150002"/>
    <trip id="veh582" type="veh_passenger" depart="348.86" departLane="best" from="94874360#2" to="256727240#0"/>
    <trip id="veh583" type="veh_passenger" depart="349.46" departLane="best" from="138949038#1" to="251609789#2"/>
    <trip id="veh587" type="veh_passenger" depart="351.86" departLane="best" departSpeed="max" from="289048418#0" to="289048413-AddedOnRampEdge"/>
    <trip id="veh588" type="veh_passenger" depart="352.46" departLane="best" from="138076298#0" to="-138076301"/>
    <trip id="veh590" type="veh_passenger" depart="353.65" departLane="best" departSpeed="max" from="-286653193" to="383241557#1"/>
    <trip id="veh591" type="veh_passenger" depart="354.25" departLane="best" departSpeed="max" from="271086459" to="403150002"/>
    <trip id="veh592" type="veh_passenger" depart="354.85" departLane="best" departSpeed="max" from="-203126694" to="383241557#1"/>
    <trip id="veh595" type="veh_passenger" depart="356.65" departLane="best" departSpeed="max" from="256727222#0" to="94874360#2"/>
    <trip id="veh598" type="veh_passenger" depart="358.45" departLane="best" departSpeed="max" from="138076301" to="383241557#1"/>
    <trip id="veh602" type="veh_passenger" depart="360.85" departLane="best" departSpeed="max" from="383241555" to="138949029#2"/>
    <trip id="veh606" type="veh_passenger" depart="363.24" departLane="best" from="-251609782#1" to="286652481#3"/>
    <trip id="veh609" type="veh_passenger" depart="365.04" departLane="best" departSpeed="max" from="330165462#0" to="138076298#0"/>
    <trip id="veh610" type="veh_passenger" depart="365.64" departLane="best" from="94874405" to="-383241555"/>
    <trip id="veh612" type="veh_passenger" depart="366.84" departLane="best" from="-251609782#0" to="286652481#0"/>
    <trip id="veh617" type="veh_passenger" depart="369.84" departLane="best" from="-217703429" to="383241557#1"/>
    <trip id="veh618" type="veh_passenger" depart="370.44" departLane="best" departSpeed="max" from="138076301" to="138949029#1"/>
    <trip id="veh621" type="veh_passenger" depart="372.24" departLane="best" departSpeed="max" from="138076301" to="29252071"/>
    <trip id="veh624" type="veh_passenger" depart="374.03" departLane="best" from="138949029#2" to="256727240#0"/>
    <trip id="veh627" type="veh_passenger" depart="375.83" departLane="best" departSpeed="max" from="-52246104" to="8035865#0"/>
    <trip id="veh630" type="veh_passenger" depart="377.63" departLane="best" from="138076298#3" to="-138949038#0"/>
    <trip id="veh632" type="veh_passenger" depart="378.83" departLane="best" departSpeed="max" from="30620680" to="289048413"/>
    <trip id="veh633" type="veh_passenger" depart="379.43" departLane="best" from="448195259" to="286652481#0"/>
    <trip id="veh635" type="veh_passenger" depart="380.63" departLane="best" from="-138080036#0" to="256727240#0"/>
    <trip id="veh646" type="veh_passenger" depart="387.22" departLane="best" departSpeed="max" from="-203126694" to="-251609789#4"/>
    <trip id="veh647" type="veh_passenger" depart="387.82" departLane="best" from="-286652481#2" to="-256727222#1"/>
    <trip id="veh654" type="veh_passenger" depart="392.02" departLane="best" departSpeed="max" from="271086462" to="289048413"/>
    <trip id="veh660" type="veh_passenger" depart="395.61" departLane="best" departSpeed="max" from="256727222#0" to="273443765#4"/>
    <trip id="veh663" type="veh_passenger" depart="397.41" departLane="best" departSpeed="max" from="273443765#0" to="-448195260#1"/>
    <trip id="veh664" type="veh_passenger" depart="398.01" departLane="best" from="187803815#1" to="251609789#6"/>
    <trip id="veh667" type="veh_passenger" depart="399.81" departLane="best" departSpeed="max" from="138076301" to="256727240#0"/>
    <trip id="veh669" type="veh_passenger" depart="401.01" departLane="best" departSpeed="max" from="-519981167#3" to="-29113164#0"/>
    <trip id="veh670" type="veh_passenger" depart="401.61" departLane="best" from="138949029#2" to="273443765#1"/>
    <trip id="veh673" type="veh_passenger" depart="403.41" departLane="best" departSpeed="max" from="256727222#0" to="251609789#6"/>
    <trip id="veh684" type="veh_passenger" depart="410.00" departLane="best" departSpeed="max" from="256727222#0" to="29252071"/>
    <trip id="veh686" type="veh_passenger" depart="411.20" departLane="best" departSpeed="max" from="273443765#0" to="-251609789#3"/>
    <trip id="veh691" type="veh_passenger" depart="414.19" departLane="best" departSpeed="max" from="256727222#0" to="-138080036#0"/>
    <trip id="veh692" type="veh_passenger" depart="414.79" departLane="best" departSpeed="max" from="-286652481#3" to="94874388#0"/>
    <trip id="veh696" type="veh_passenger" depart="417.19" departLane="best" departSpeed="max" from="28949541" to="289048413"/>
    <trip id="veh697" type="veh_passenger" depart="417.79" departLane="best" departSpeed="max" from="273443765#0" to="-138076298#4"/>
    <trip id="veh703" type="veh_passenger" depart="421.39" departLane="best" departSpeed="max" from="273443765#0" to="-138076301"/>
    <trip id="veh707" type="veh_passenger" depart="423.79" departLane="best" from="158364458#1" to="383241557#1"/>
    <trip id="veh713" type="veh_passenger" depart="427.38" departLane="best" departSpeed="max" from="289048418#0" to="289048413"/>
    <trip id="veh715" type="veh_passenger" depart="428.58" departLane="best" from="-448195260#1" to="256727240#0"/>
    <trip id="veh728" type="veh_passenger" depart="436.37" departLane="best" from="273443765#1" to="-256727222#0"/>
    <trip id="veh730" type="veh_passenger" depart="437.57" departLane="best" from="-448195260#0" to="286653193"/>
    <trip id="veh731" type="veh_passenger" depart="438.17" departLane="best" from="256727238" to="286652481#0"/>
    <trip id="veh733" type="veh_passenger" depart="439.37" departLane="best" from="286652481#0" to="-251609782#1"/>
    <trip id="veh744" type="veh_passenger" depart="445.96" departLane="best" departSpeed="max" from="158364458#0" to="251609789#6"/>
    <trip id="veh748" type="veh_passenger" depart="448.36" departLane="best" from="-251609789#6" to="94874360#1"/>
    <trip id="veh758" type="veh_passenger" depart="454.36" departLane="best" from="-251609784" to="286653193"/>
    <trip id="veh759" type="veh_passenger" depart="454.95" departLane="best" departSpeed="max" from="-286653193" to="-256727222#0"/>
    <trip id="veh761" type="veh_passenger" depart="456.15" departLane="best" from="-519981167#2" to="-29113164#0"/>
    <trip id="veh763" type="veh_passenger" depart="457.35" departLane="best" departSpeed="max" from="273443765#0" to="-138949029#2"/>
    <trip id="veh765" type="veh_passenger" depart="458.55" departLane="best" departSpeed="max" from="158364458#0" to="251609793"/>
    <trip id="veh773" type="veh_passenger" depart="463.35" departLane="best" from="251609782#2" to="256727239#3"/>
    <trip id="veh777" type="veh_passenger" depart="465.74" departLane="best" departSpeed="max" from="242614248#0" to="289048413"/>
    <trip id="veh779" type="veh_passenger" depart="466.94" departLane="best" departSpeed="max" from="-203126694" to="256727240#0"/>
    <trip id="veh782" type="veh_passenger" depart="468.74" departLane="best" from="256727222#1" to="-251609789#2"/>
    <trip id="veh783" type="veh_passenger" depart="469.34" departLane="best" from="-251609789#0" to="256727237"/>
    <trip id="veh785" type="veh_passenger" depart="470.54" departLane="best" departSpeed="max" from="256727222#0" to="251609782#1"/>
    <trip id="veh786" type="veh_passenger" depart="471.14" departLane="best" departSpeed="max" from="-203126694" to="251609782#2"/>
    <trip id="veh787" type="veh_passenger" depart="471.74" departLane="best" departSpeed="max" from="28949541" to="289048413"/>
    <trip id="veh790" type="veh_passenger" depart="473.54" departLane="best" from="-138949038#0" to="-94874360#2"/>
    <trip id="veh791" type="veh_passenger" depart="474.14" departLane="best" departSpeed="max" from="-203126694" to="94874388#1"/>
    <trip id="veh792" type="veh_passenger" depart="474.74" departLane="best" from="448195260#0" to="-158364458#0"/>
    <trip id="veh793" type="veh_passenger" depart="475.33" departLane="best" from="448195260#0" to="-138076301"/>
    <trip id="veh794" type="veh_passenger" depart="475.93" departLane="best" from="158364458#1" to="383241557#1"/>
    <trip id="veh799" type="veh_passenger" depart="478.93" departLane="best" departSpeed="max" from="-286653193" to="256727239#3"/>
    <trip id="veh801" type="veh_passenger" depart="480.13" departLane="best" departSpeed="max" from="-383241557#1" to="-138076298#0"/>