<?xml version="1.0" encoding="UTF-8"?>

<!-- generated on Fri Apr 17 11:39:01 2020 by Eclipse SUMO polyconvert Version 1.5.0
<configuration xmlns:xsi="http://www.w3.org/2001/XMLSchema-instance" xsi:noNamespaceSchemaLocation="http://sumo.dlr.de/xsd/polyconvertConfiguration.xsd">

    <input>
        <net-file value="osm.net.xml"/>
        <osm-files value="osm_bbox.osm.xml"/>
        <osm.keep-full-type value="true"/>
        <type-file value="/usr/share/sumo/data/typemap/osmPolyconvert.typ.xml"/>
    </input>

    <output>
        <output-file value="osm.poly.xml"/>
    </output>

    <processing>
        <poi-layer-offset value="5"/>
    </processing>

    <report>
        <verbose value="true"/>
    </report>

</configuration>
-->

<additional xmlns:xsi="http://www.w3.org/2001/XMLSchema-instance" xsi:noNamespaceSchemaLocation="http://sumo.dlr.de/xsd/additional_file.xsd">
    <location netOffset="-296860.90,-2741090.98" convBoundary="-620.05,-1382.39,3873.60,3036.70" origBoundary="120.984687,24.758965,121.029190,24.798479" projParameter="+proj=utm +zone=51 +ellps=WGS84 +datum=WGS84 +units=m +no_defs"/>

    <poly id="103770492" type="leisure.track" color="207,245,201" fill="1" layer="-2.00" shape="453.868722,2016.247286 453.445510,2019.111973 452.842750,2021.458564 452.039374,2023.918894 451.242370,2026.124306 449.998449,2028.890245 448.340582,2031.706578 446.333831,2034.871492 443.997477,2037.631309 440.633557,2041.359034 436.460343,2045.076482 432.497566,2047.970969 428.856620,2050.051939 424.565897,2051.965180 420.100017,2053.659406 416.695291,2054.606818 412.164704,2055.338092 405.774817,2055.498379 401.652676,2055.115724 396.299650,2054.252571 392.451704,2053.256528 388.606713,2051.772951 383.984282,2049.004504 379.461832,2046.157035 375.747049,2043.209073 371.914363,2039.808589 368.873540,2035.920066 367.215910,2033.241042 365.437773,2029.932264 363.490360,2026.116320 361.742125,2021.400024 360.956306,2017.478389 357.312600,1920.875520 358.107351,1913.695502 359.637772,1908.399252 361.866103,1903.103834 365.231723,1898.113019 368.654901,1893.597773 372.199725,1889.789820 375.977266,1886.676452 379.853951,1884.115597 386.207002,1881.440830 392.656594,1879.141347 397.984156,1878.265419 403.053028,1877.681353 406.210816,1877.823345 409.562688,1878.095440 412.905748,1878.456300 416.154028,1879.250648 423.154835,1882.117148 429.929042,1886.083835 434.246977,1889.466135 438.058290,1893.476316 441.050184,1897.476366 443.308956,1901.143718 445.228983,1904.472581 446.675684,1907.941345 447.861744,1911.569045 448.592102,1915.159116 453.868722,2016.247286"/>
    <poly id="103770492#1" type="sport.athletics" color="79,230,125" fill="1" layer="-2.00" shape="453.868722,2016.247286 453.445510,2019.111973 452.842750,2021.458564 452.039374,2023.918894 451.242370,2026.124306 449.998449,2028.890245 448.340582,2031.706578 446.333831,2034.871492 443.997477,2037.631309 440.633557,2041.359034 436.460343,2045.076482 432.497566,2047.970969 428.856620,2050.051939 424.565897,2051.965180 420.100017,2053.659406 416.695291,2054.606818 412.164704,2055.338092 405.774817,2055.498379 401.652676,2055.115724 396.299650,2054.252571 392.451704,2053.256528 388.606713,2051.772951 383.984282,2049.004504 379.461832,2046.157035 375.747049,2043.209073 371.914363,2039.808589 368.873540,2035.920066 367.215910,2033.241042 365.437773,2029.932264 363.490360,2026.116320 361.742125,2021.400024 360.956306,2017.478389 357.312600,1920.875520 358.107351,1913.695502 359.637772,1908.399252 361.866103,1903.103834 365.231723,1898.113019 368.654901,1893.597773 372.199725,1889.789820 375.977266,1886.676452 379.853951,1884.115597 386.207002,1881.440830 392.656594,1879.141347 397.984156,1878.265419 403.053028,1877.681353 406.210816,1877.823345 409.562688,1878.095440 412.905748,1878.456300 416.154028,1879.250648 423.154835,1882.117148 429.929042,1886.083835 434.246977,1889.466135 438.058290,1893.476316 441.050184,1897.476366 443.308956,1901.143718 445.228983,1904.472581 446.675684,1907.941345 447.861744,1911.569045 448.592102,1915.159116 453.868722,2016.247286"/>
    <poly id="134752115" type="building.permanent" color="255,230,230" fill="1" layer="-1.00" shape="1059.668163,1777.295748 1059.473297,1759.139602 1104.687695,1758.633195 1104.892614,1776.789188 1059.668163,1777.295748"/>
    <poly id="134752115#1" type="leisure.stadium" color="207,245,201" fill="1" layer="-2.00" shape="1059.668163,1777.295748 1059.473297,1759.139602 1104.687695,1758.633195 1104.892614,1776.789188 1059.668163,1777.295748"/>
    <poly id="134752115#2" type="sport.badminton" color="79,230,125" fill="1" layer="-2.00" shape="1059.668163,1777.295748 1059.473297,1759.139602 1104.687695,1758.633195 1104.892614,1776.789188 1059.668163,1777.295748"/>
    <poly id="134752167" type="building.permanent" color="255,230,230" fill="1" layer="-1.00" shape="428.609962,2091.813672 428.420742,2055.498304 445.532731,2055.402225 445.507329,2050.915457 480.469825,2050.734684 480.684136,2091.525734 428.609962,2091.813672"/>
    <poly id="134752167#1" type="leisure.sports_centre" color="207,245,201" fill="1" layer="-2.00" shape="428.609962,2091.813672 428.420742,2055.498304 445.532731,2055.402225 445.507329,2050.915457 480.469825,2050.734684 480.684136,2091.525734 428.609962,2091.813672"/>
    <poly id="134752203" type="building.yes" color="255,230,230" fill="1" layer="-1.00" shape="496.701009,1921.000981 555.388784,1919.209253 556.860438,1967.128015 498.172868,1968.919750 496.701009,1921.000981"/>
    <poly id="134752203#1" type="leisure.stadium" color="207,245,201" fill="1" layer="-2.00" shape="496.701009,1921.000981 555.388784,1919.209253 556.860438,1967.128015 498.172868,1968.919750 496.701009,1921.000981"/>
    <poly id="134752333" type="building.yes" color="255,230,230" fill="1" layer="-1.00" shape="730.247213,2031.748483 766.286669,1998.081972 797.878352,2031.532878 769.940695,2057.624179 760.725166,2047.865388 777.178463,2032.500968 763.473470,2017.999532 738.928339,2040.927885 730.247213,2031.748483"/>
    <poly id="134752398" type="building.university" color="255,230,230" fill="1" layer="-1.00" shape="564.053594,1893.477768 649.565978,1891.071400 648.673131,1859.840743 671.764976,1859.191953 671.339595,1843.975174 621.192656,1845.386306 621.671009,1862.142340 597.648999,1862.815936 563.213476,1863.786357 564.053594,1893.477768"/>
    <poly id="134752408" type="building.university" color="255,230,230" fill="1" layer="-1.00" shape="811.491351,1939.663004 811.467807,1935.985010 815.056499,1935.854876 819.039566,1935.718965 818.997473,1931.465118 824.559018,1931.372559 824.602317,1928.114600 826.644007,1928.018213 826.227981,1912.047911 828.411406,1911.960527 828.128865,1888.531879 824.158909,1885.421350 823.864370,1876.362772 819.892189,1872.410247 782.810608,1872.953555 782.847291,1875.456947 767.666549,1875.524289 767.937576,1887.807301 772.274507,1891.111865 768.874724,1895.161326 781.390881,1906.522585 777.592617,1910.987818 785.939523,1918.753994 786.328441,1940.463792 811.491351,1939.663004"/>
    <poly id="134752428" type="building.university" color="255,230,230" fill="1" layer="-1.00" shape="777.739779,1933.454554 777.601108,1917.779326 760.545061,1918.250857 760.361991,1921.632738 712.536290,1922.677164 712.535458,1937.800476 755.555170,1937.336127 755.705082,1944.114485 751.792152,1944.205069 751.968574,1952.102051 747.054540,1952.207309 747.230316,1960.059983 744.318333,1960.124821 744.532356,1969.206741 771.771297,1968.585957 771.330757,1933.692503 777.739779,1933.454554"/>
    <poly id="134752746" type="building.university" color="255,230,230" fill="1" layer="-1.00" shape="1033.530963,1801.387960 1033.946045,1821.457608 1020.632083,1821.918362 1020.856839,1836.584089 999.341588,1836.455822 993.375185,1831.003495 987.000732,1830.841978 983.659709,1820.254737 967.674158,1820.621698 966.962674,1803.802624 1033.530963,1801.387960"/>
    <poly id="134752749" type="building.university" color="255,230,230" fill="1" layer="-1.00" shape="653.595323,1737.496953 653.050271,1716.188292 679.873979,1715.495900 680.084667,1723.658285 694.431824,1723.292858 694.917619,1741.943343 695.624334,1761.864714 705.409980,1761.510765 706.336306,1787.444997 686.623479,1788.154978 657.576342,1788.957522 656.934357,1765.866508 682.948333,1765.141669 682.167451,1736.712452 653.595323,1737.496953"/>
    <poly id="134752750" type="building.university" color="255,230,230" fill="1" layer="-1.00" shape="644.624297,1791.341136 643.507096,1766.883249 621.118530,1767.909538 620.436027,1753.095385 619.825851,1739.764803 643.589255,1738.685119 642.399407,1712.721509 603.727043,1714.485155 604.500126,1731.336580 596.009649,1731.727000 596.723448,1747.294091 597.523102,1764.577222 598.846451,1793.430588 608.964322,1792.971983 644.624297,1791.341136"/>
    <poly id="134752912" type="building.university" color="255,230,230" fill="1" layer="-1.00" shape="575.492543,2006.529847 574.575240,1957.096164 601.745228,1956.597930 627.560179,1956.119621 627.859804,1972.412946 616.029209,1972.630762 616.646725,2005.771113 575.492543,2006.529847"/>
    <poly id="134753204" type="leisure.pitch" color="207,245,201" fill="1" layer="-2.00" shape="615.780907,1586.696524 598.710995,1488.307455 589.401784,1485.297436 572.457442,1487.905830 552.334935,1494.505107 537.965829,1503.734459 525.536931,1514.907490 513.377567,1527.904672 505.784702,1543.294486 499.800662,1556.655340 497.552201,1570.238372 497.042874,1581.712972 498.095761,1596.255789 528.552866,1598.456921 599.804833,1603.594128 615.780907,1586.696524"/>
    <poly id="134753204#1" type="sport.baseball" color="79,230,125" fill="1" layer="-2.00" shape="615.780907,1586.696524 598.710995,1488.307455 589.401784,1485.297436 572.457442,1487.905830 552.334935,1494.505107 537.965829,1503.734459 525.536931,1514.907490 513.377567,1527.904672 505.784702,1543.294486 499.800662,1556.655340 497.552201,1570.238372 497.042874,1581.712972 498.095761,1596.255789 528.552866,1598.456921 599.804833,1603.594128 615.780907,1586.696524"/>
    <poly id="134753275" type="building.university" color="255,230,230" fill="1" layer="-1.00" shape="633.951828,1527.022667 621.991663,1527.397457 619.810942,1459.380127 706.665935,1456.611193 707.164795,1472.015235 710.672871,1471.897345 713.786721,1471.796312 714.016027,1479.160708 719.182232,1478.996361 720.724489,1526.947272 718.004877,1527.031447 646.567993,1529.308391 647.018676,1536.591989 634.150344,1537.113035 633.951828,1527.022667"/>
    <poly id="134753729" type="building.university" color="255,230,230" fill="1" layer="-1.00" shape="774.641429,1606.039174 802.209114,1605.025917 801.990834,1599.101673 811.230683,1598.766885 809.003145,1538.539050 799.935169,1538.871319 799.677840,1531.662446 784.332113,1532.230725 784.829745,1545.485391 792.340883,1545.209158 792.960090,1561.929874 785.105137,1562.211144 785.810296,1581.345895 773.739921,1581.788648 774.641429,1606.039174"/>
    <poly id="134753869" type="amenity.parking" color="184,184,179" fill="1" layer="-1.00" shape="392.168080,1714.963490 395.552067,1720.176507 396.179840,1749.848893 433.318757,1749.048908 432.841222,1720.648448 465.905903,1719.974834 464.514067,1649.253590 458.489071,1638.451002 446.270895,1630.198922 449.780386,1617.084860 450.298173,1615.149454 403.171218,1598.413321 396.011858,1614.384053 401.993212,1624.965671 403.648024,1632.962834 402.467972,1640.082024 400.610217,1658.224043 396.398995,1670.384520 393.902702,1684.990520 394.065150,1696.056414 391.794418,1707.423932 392.168080,1714.963490"/>
    <poly id="134794408" type="building.university" color="255,230,230" fill="1" layer="-1.00" shape="501.664388,1613.365343 576.627193,1610.836471 578.767518,1674.012743 522.598804,1675.911358 521.968122,1657.052479 536.808916,1656.546701 535.986909,1632.228511 502.342171,1633.364704 501.664388,1613.365343"/>
    <poly id="134795769" type="building.permanent" color="255,230,230" fill="1" layer="-1.00" shape="1128.173665,1659.761342 1161.474637,1728.497804 1124.183533,1748.620368 1117.511504,1737.106849 1127.933468,1731.159921 1125.592154,1725.986893 1107.499184,1686.011502 1095.577712,1691.094034 1090.637638,1677.671704 1128.173665,1659.761342"/>
    <poly id="134993779" type="building.university" color="255,230,230" fill="1" layer="-1.00" shape="978.303069,1783.217426 977.862170,1770.371869 974.060592,1770.471835 973.771403,1761.080805 979.788878,1761.037037 979.733665,1746.900633 965.772803,1733.577150 953.730312,1733.842079 953.782679,1739.491766 926.085495,1739.930515 916.510135,1743.593944 916.482043,1752.036800 926.452874,1758.804302 943.744123,1758.495739 944.229510,1770.232714 952.860334,1770.449814 952.877304,1772.299812 957.197204,1772.369521 957.550043,1783.343963 978.303069,1783.217426"/>
    <poly id="134993819" type="building.yes" color="255,230,230" fill="1" layer="-1.00" shape="1094.667804,1432.527349 1090.623333,1420.177687 1095.686940,1418.530355 1093.199012,1410.944185 1098.051231,1409.366423 1093.678848,1396.035498 1089.893696,1397.265273 1086.823320,1387.892776 1085.142135,1388.438096 1080.313990,1373.684610 1075.572512,1375.227520 1068.574042,1353.858202 1035.674829,1364.510338 1040.397037,1378.932983 1030.209127,1382.228574 1036.583454,1401.723526 1046.227701,1398.602082 1053.099816,1419.629781 1044.774331,1422.321992 1050.947085,1441.177298 1058.094578,1438.856863 1059.724999,1443.829777 1094.667804,1432.527349"/>
    <poly id="135404493" type="amenity.library" color="237,199,199" fill="1" layer="-1.00" shape="759.075311,1739.274653 757.074608,1641.395901 801.560610,1640.156892 801.360170,1633.379279 810.014287,1633.108465 813.223848,1737.583844 789.950764,1738.301512 790.407604,1747.390950 782.392885,1752.638113 774.653777,1747.012417 775.028686,1738.774979 759.075311,1739.274653"/>
    <poly id="135404493#1" type="building.university" color="255,230,230" fill="1" layer="-1.00" shape="759.075311,1739.274653 757.074608,1641.395901 801.560610,1640.156892 801.360170,1633.379279 810.014287,1633.108465 813.223848,1737.583844 789.950764,1738.301512 790.407604,1747.390950 782.392885,1752.638113 774.653777,1747.012417 775.028686,1738.774979 759.075311,1739.274653"/>
    <poly id="135404506" type="building.university" color="255,230,230" fill="1" layer="-1.00" shape="640.364797,1671.912888 639.796882,1658.703561 644.385964,1658.503324 648.126092,1658.348774 647.697430,1648.427970 663.082186,1647.770321 661.727366,1616.070035 645.240806,1616.777075 644.978760,1610.631883 641.339744,1610.784951 635.284829,1611.039917 634.549968,1594.032825 641.191087,1593.747105 726.333186,1590.105912 726.973656,1604.820961 716.986624,1605.244313 717.387542,1614.655871 683.060009,1616.134007 684.438577,1648.077689 717.219643,1646.677612 717.675786,1657.096581 728.188299,1656.643367 728.680081,1668.114351 645.034775,1671.711465 640.364797,1671.912888"/>
    <poly id="135405221" type="building.dormitory" color="255,230,230" fill="1" layer="-1.00" shape="951.338299,1553.173390 951.213780,1542.594464 896.604310,1543.249961 896.813751,1561.007048 869.731440,1561.326083 869.880519,1573.577632 883.826242,1573.417722 900.642279,1573.105004 900.796697,1581.578424 912.587162,1581.361467 912.164477,1558.710444 903.751232,1558.855790 903.660616,1554.048691 951.338299,1553.173390"/>
    <poly id="135631888" type="building.university" color="255,230,230" fill="1" layer="-1.00" shape="511.906968,1736.528233 503.688387,1736.837166 503.470300,1730.935071 510.839609,1730.649678 510.676565,1726.430838 520.734951,1726.050600 520.587386,1722.197151 567.027657,1720.430123 567.650926,1736.718701 563.860094,1736.862939 564.007973,1740.738541 520.196005,1742.400548 512.149339,1742.706954 511.906968,1736.528233"/>
    <poly id="135631955" type="building.university" color="255,230,230" fill="1" layer="-1.00" shape="497.551170,1825.916572 497.085010,1813.448061 492.596613,1813.613636 492.080282,1799.794180 486.146307,1800.014206 485.927074,1794.034573 499.786503,1793.520984 499.590390,1788.427359 569.301677,1785.820313 570.709421,1823.181384 497.551170,1825.916572"/>
    <poly id="135631985" type="leisure.pitch" color="207,245,201" fill="1" layer="-2.00" shape="377.154356,1832.514330 376.053213,1798.849240 442.635675,1796.697423 440.368595,1726.997232 461.295660,1726.313404 464.653451,1829.678822 377.154356,1832.514330"/>
    <poly id="135631985#1" type="sport.basketball" color="79,230,125" fill="1" layer="-2.00" shape="377.154356,1832.514330 376.053213,1798.849240 442.635675,1796.697423 440.368595,1726.997232 461.295660,1726.313404 464.653451,1829.678822 377.154356,1832.514330"/>
    <poly id="135632206" type="building.university" color="255,230,230" fill="1" layer="-1.00" shape="692.080212,1873.363745 691.258750,1846.995878 687.497800,1847.106409 686.991303,1830.494823 694.939305,1824.151721 726.461274,1823.135706 726.590507,1827.122374 758.890949,1826.083943 758.931612,1844.042950 736.144417,1844.775762 723.255016,1845.219503 724.197555,1872.261432 692.080212,1873.363745"/>
    <poly id="135632264" type="leisure.pitch" color="207,245,201" fill="1" layer="-2.00" shape="381.527345,1796.242775 441.726509,1794.018483 440.306878,1755.870938 380.117497,1758.083999 381.527345,1796.242775"/>
    <poly id="135632264#1" type="sport.tennis" color="79,230,125" fill="1" layer="-2.00" shape="381.527345,1796.242775 441.726509,1794.018483 440.306878,1755.870938 380.117497,1758.083999 381.527345,1796.242775"/>
    <poly id="135632272" type="building.yes" color="255,230,230" fill="1" layer="-1.00" shape="906.674234,1487.694828 906.818620,1501.010057 921.031717,1501.145418 921.111201,1492.757209 933.432618,1492.875962 933.579206,1478.016449 919.487598,1477.890374 919.631741,1462.864707 908.099398,1462.756569 908.027276,1470.956322 893.834371,1470.820677 878.059794,1473.189976 878.212061,1480.134481 878.490652,1488.107514 886.930005,1488.360629 906.674234,1487.694828"/>
    <poly id="135632302" type="building.yes" color="255,230,230" fill="1" layer="-1.00" shape="859.705807,1494.886171 859.211334,1479.770135 845.350633,1480.216879 845.604474,1487.880054 832.148443,1488.331965 832.652411,1503.403545 845.198626,1502.987118 845.697010,1518.369001 861.023498,1517.867550 860.805138,1511.245312 873.503032,1510.826688 872.959743,1494.448326 859.705807,1494.886171"/>
    <poly id="135992304" type="building.university" color="255,230,230" fill="1" layer="-1.00" shape="805.643434,1811.826706 805.376424,1805.338130 811.350515,1805.095494 810.992649,1796.547493 815.389712,1796.361202 821.383868,1796.107197 821.523237,1799.406796 824.434441,1799.286593 824.883804,1809.938326 841.087304,1809.257787 840.448619,1793.966589 834.494911,1794.219992 834.357493,1791.053317 834.246952,1788.340500 828.859369,1788.574534 828.612543,1782.772580 815.835622,1783.303217 782.913156,1784.694079 784.092810,1812.740746 805.643434,1811.826706"/>
    <poly id="135992306" type="natural.water" color="181,209,209" fill="1" layer="-4.00" shape="1029.873335,1729.769390 1042.830196,1743.606195 1047.755555,1747.035184 1055.622939,1746.920062 1061.314455,1746.027992 1066.734657,1745.948684 1074.645475,1748.802193 1080.607852,1748.449055 1092.801587,1747.461867 1094.350751,1742.043578 1094.236342,1734.223258 1088.120005,1724.053296 1082.757547,1710.105341 1080.494810,1703.391145 1076.293286,1694.821831 1071.286657,1686.530202 1064.202847,1684.207478 1052.361024,1690.585163 1046.176970,1694.453698 1042.912848,1693.958575 1035.401461,1699.741102 1030.309549,1703.593663 1020.303486,1706.166467 1015.256749,1713.796420 1015.359368,1720.808125 1026.284801,1725.766877 1029.873335,1729.769390"/>
    <poly id="135992308" type="building.university" color="255,230,230" fill="1" layer="-1.00" shape="487.010437,1910.595638 538.183973,1907.473797 548.501551,1895.124067 560.055023,1869.804457 558.888284,1856.459877 582.370134,1855.506074 582.454471,1849.533069 590.161805,1849.541897 590.030047,1840.558479 511.023098,1843.113483 492.063695,1873.106505 485.873586,1891.710942 487.010437,1910.595638"/>
    <poly id="135992309" type="building.university" color="255,230,230" fill="1" layer="-1.00" shape="880.091248,1849.491658 850.667948,1850.842203 845.550290,1853.620524 833.411643,1854.219355 833.187565,1843.065752 832.977818,1832.200001 844.654241,1831.807370 844.548459,1828.728866 880.735617,1827.190614 880.745297,1832.685818 885.195018,1832.642808 885.164787,1841.628585 880.091248,1849.491658"/>
    <poly id="138076303" type="building.apartments" color="255,230,230" fill="1" layer="-1.00" shape="927.010626,2088.383912 925.935914,2064.723127 885.414705,2066.557458 886.499599,2090.218097 927.010626,2088.383912"/>
    <poly id="138076307" type="building.apartments" color="255,230,230" fill="1" layer="-1.00" shape="1027.074193,2054.755684 1026.688785,2038.098027 1052.704154,2037.506773 1053.097149,2054.685045 1076.968882,2054.136285 1077.652838,2083.597262 1051.819739,2084.196888 1051.452900,2068.115084 1029.755124,2068.620992 1030.145882,2085.644189 1006.506777,2086.189629 1005.800941,2055.244335 1027.074193,2054.755684"/>
    <poly id="138076312" type="building.apartments" color="255,230,230" fill="1" layer="-1.00" shape="980.988372,2041.270919 981.395520,2058.027975 1001.879703,2057.528678 1002.558263,2085.228131 981.143810,2085.741050 980.764934,2070.224463 957.591278,2070.785329 958.016678,2088.096087 931.951482,2088.732574 931.168099,2056.647234 953.583375,2056.097430 953.234531,2041.943159 980.988372,2041.270919"/>
    <poly id="138080031" type="amenity.parking" color="184,184,179" fill="1" layer="-1.00" shape="488.749123,2025.629231 567.376458,2023.467358 566.317436,1985.059705 487.679932,1987.232794 488.749123,2025.629231"/>
    <poly id="138080033" type="building.yes" color="255,230,230" fill="1" layer="-1.00" shape="1075.621358,2047.065240 1110.442841,2078.043159 1153.777849,2031.407906 1136.104505,2014.559969 1102.229629,2051.052239 1085.221667,2036.133509 1075.621358,2047.065240"/>
    <poly id="138080035" type="amenity.parking" color="184,184,179" fill="1" layer="-1.00" shape="839.563745,1935.174539 876.757673,1928.502855 880.740792,1923.536374 881.343896,1915.683376 879.802401,1907.806392 874.782574,1900.689430 867.597273,1897.648142 867.463802,1889.916725 838.851453,1890.003461 839.563745,1935.174539"/>
    <poly id="138080039" type="building.university" color="255,230,230" fill="1" layer="-1.00" shape="537.722827,2116.636586 596.388599,2114.091890 597.772182,2145.669903 539.106545,2148.214603 537.722827,2116.636586"/>
    <poly id="138949032" type="natural.water" color="181,209,209" fill="1" layer="-4.00" shape="850.982084,1710.706253 859.428496,1710.759810 861.301234,1719.152669 859.595118,1724.207672 863.050297,1728.079148 859.030185,1731.905000 859.228055,1735.746628 864.380264,1736.014626 865.236461,1739.226170 867.044679,1744.595318 866.430316,1748.227256 860.781690,1749.284969 855.775658,1750.709970 850.604796,1749.168127 848.220984,1745.934642 848.461348,1742.319260 849.766915,1738.920942 850.004631,1735.815248 849.002801,1732.328854 849.222454,1728.680538 849.992016,1725.976989 848.037300,1723.036361 843.546116,1720.941677 842.540065,1717.167283 843.690431,1712.840574 850.982084,1710.706253"/>
    <poly id="138949039" type="building.dormitory" color="255,230,230" fill="1" layer="-1.00" shape="856.264785,1625.273746 878.462026,1624.981896 878.410334,1620.761430 874.152843,1620.812701 874.040154,1612.427302 873.940282,1604.916983 877.853793,1604.859671 877.808102,1601.049052 873.611280,1601.099434 873.443655,1588.272031 912.367258,1587.757456 912.534523,1600.562703 880.871845,1600.982027 880.915426,1604.648645 884.909998,1604.601227 885.006946,1611.912161 885.117463,1620.840478 881.375706,1620.884194 881.441890,1625.403589 895.892856,1625.214129 896.049652,1636.612457 856.418152,1637.126378 856.264785,1625.273746"/>
    <poly id="138949040" type="leisure.pitch" color="207,245,201" fill="1" layer="-2.00" shape="1088.113699,1906.130822 1106.009375,1905.669572 1105.105148,1869.442367 1087.209424,1869.903615 1088.113699,1906.130822"/>
    <poly id="138949040#1" type="sport.tennis" color="79,230,125" fill="1" layer="-2.00" shape="1088.113699,1906.130822 1106.009375,1905.669572 1105.105148,1869.442367 1087.209424,1869.903615 1088.113699,1906.130822"/>
    <poly id="138949041" type="amenity.motorcycle_parking" color="237,199,199" fill="1" layer="-1.00" shape="1126.617554,1883.209469 1136.249164,1875.789471 1152.237360,1841.032485 1149.869945,1827.849495 1145.821378,1810.370164 1143.976362,1795.561955 1143.109959,1792.339469 1127.429767,1792.147810 1127.364149,1799.416798 1127.044310,1831.485001 1126.740654,1863.275987 1126.617554,1883.209469"/>
    <poly id="158364450" type="building.university" color="255,230,230" fill="1" layer="-1.00" shape="606.646589,2163.887140 653.535287,2154.867807 657.509009,2181.688033 615.856353,2189.799610 611.827058,2172.297938 607.674062,2173.256279 606.646589,2163.887140"/>
    <poly id="158364452" type="building.dormitory" color="255,230,230" fill="1" layer="-1.00" shape="586.285828,2070.055630 585.752562,2057.144930 651.111662,2054.424754 651.388701,2060.902109 651.668014,2067.534541 646.219864,2067.769543 646.375075,2071.456689 645.445087,2071.492486 643.554936,2071.575600 643.397450,2067.733376 618.662877,2068.760875 615.408079,2068.897245 591.866248,2069.874061 592.072770,2074.989691 597.814981,2074.805751 598.460490,2089.853119 593.317498,2090.205540 590.285171,2090.338654 586.625894,2090.480964 585.988209,2075.278370 588.879133,2075.158409 588.661198,2069.954311 586.285828,2070.055630"/>
    <poly id="158364453" type="building.dormitory" color="255,230,230" fill="1" layer="-1.00" shape="625.314342,2088.506437 620.301669,2088.779381 620.564467,2093.595044 616.429761,2093.733240 616.165175,2088.795731 611.273847,2089.066898 610.470133,2074.265596 615.684890,2073.978606 615.408079,2068.897245 618.662877,2068.760875 618.941961,2073.997313 624.500367,2073.694207 625.314342,2088.506437"/>
    <poly id="158364463" type="building.yes" color="255,230,230" fill="1" layer="-1.00" shape="671.494881,2083.596933 665.967779,2070.859172 667.604024,2056.908444 691.444894,2054.941313 718.120800,2042.141388 724.054547,2053.643398 708.392378,2063.633890 710.920211,2069.103266 716.573865,2066.328108 725.172453,2082.987266 716.605947,2087.145721 705.159502,2065.265629 671.494881,2083.596933"/>
    <poly id="158364466" type="building.dormitory" color="255,230,230" fill="1" layer="-1.00" shape="652.926255,2071.260910 652.948791,2073.487528 653.376530,2085.413711 653.482886,2087.838528 647.366697,2088.039009 647.515491,2092.667994 653.662015,2092.467068 654.057143,2104.238620 608.262591,2105.807643 606.442904,2105.867571 605.522868,2105.892145 587.436747,2106.456573 587.043998,2094.851175 590.440685,2094.734875 590.285171,2090.338654 591.781111,2090.272393 593.317498,2090.205540 593.461436,2094.502217 616.429761,2093.733240 620.564467,2093.595044 644.675294,2092.798278 644.514763,2088.058672 639.682484,2088.218170 639.126973,2071.718089 643.554936,2071.575600 645.445087,2071.492486 646.375075,2071.456689 652.926255,2071.260910"/>
    <poly id="158364467" type="landuse.meadow" color="194,194,130" fill="1" layer="-3.00" shape="599.421254,2116.739689 599.437688,2126.134737 600.076003,2138.622882 606.371275,2158.218550 650.748998,2148.327534 660.447404,2132.386169 659.303391,2111.618091 599.421254,2116.739689"/>
    <poly id="158364470" type="building.dormitory" color="255,230,230" fill="1" layer="-1.00" shape="674.334140,2085.472029 683.321372,2103.111528 681.694909,2103.933088 677.383616,2095.476283 668.026234,2100.189254 674.472549,2112.847061 716.721296,2091.564687 710.222667,2078.785758 687.030032,2090.471019 682.406281,2081.398351 674.334140,2085.472029"/>
    <poly id="180546699" type="building.dormitory" color="255,230,230" fill="1" layer="-1.00" shape="262.619416,2132.774391 274.877980,2119.010980 267.270007,2111.987638 251.655783,2123.152389 251.284544,2124.044194 245.554218,2114.710923 260.357668,2104.123125 258.329531,2094.126091 240.102069,2091.269523 241.796172,2080.597353 260.388661,2083.515037 264.810872,2074.719520 251.226942,2062.299693 257.986967,2054.976621 271.078680,2066.938353 279.611404,2060.486678 271.852249,2042.485895 275.490875,2040.936725 283.250585,2037.631872 293.972832,2062.491582 282.574677,2067.356674 277.363171,2072.684856 270.593033,2080.008067 269.147658,2084.893146 267.453371,2095.554235 267.784356,2098.806707 273.885913,2107.248183 279.365789,2113.992570 280.229600,2122.533155 270.371096,2144.072258 262.619416,2132.774391"/>
    <poly id="180546706" type="building.dormitory" color="255,230,230" fill="1" layer="-1.00" shape="493.094216,2176.975961 491.636368,2165.164602 462.660498,2168.703179 464.303964,2180.755559 493.094216,2176.975961"/>
    <poly id="180546712" type="building.dormitory" color="255,230,230" fill="1" layer="-1.00" shape="327.205525,2155.258491 336.548862,2160.616629 347.962354,2140.960395 338.608898,2135.602398 327.205525,2155.258491"/>
    <poly id="180546713" type="building.dormitory" color="255,230,230" fill="1" layer="-1.00" shape="302.925814,2141.799151 311.422872,2146.693292 323.054416,2126.734690 314.557351,2121.840542 302.925814,2141.799151"/>
    <poly id="180546714" type="building.dormitory" color="255,230,230" fill="1" layer="-1.00" shape="323.267244,2122.632198 342.484500,2133.661986 347.939664,2124.264122 328.732513,2113.234177 323.267244,2122.632198"/>
    <poly id="180546715" type="building.dormitory" color="255,230,230" fill="1" layer="-1.00" shape="302.666236,2158.554973 322.889624,2169.226491 327.722693,2160.170135 307.499296,2149.498609 302.666236,2158.554973"/>