<?xml version="1.0" encoding="UTF-8"?>

<!-- generated on Fri Apr 17 11:39:03 2020 by Eclipse SUMO duarouter Version 1.5.0
<configuration xmlns:xsi="http://www.w3.org/2001/XMLSchema-instance" xsi:noNamespaceSchemaLocation="http://sumo.dlr.de/xsd/duarouterConfiguration.xsd">

    <input>
        <net-file value="/home/leo/sumo/tools/2020-04-17-11-38-58/osm.net.xml"/>
        <route-files value="/home/leo/sumo/tools/2020-04-17-11-38-58/osm.pedestrian.trips.xml"/>
    </input>

    <output>
        <output-file value="/home/leo/sumo/tools/2020-04-17-11-38-58/osm.pedestrian.rou.xml"/>
        <alternatives-output value="/home/leo/sumo/tools/2020-04-17-11-38-58/osm.pedestrian.rou.alt.xml"/>
    </output>

    <time>
        <begin value="0"/>
        <end value="3600.0"/>
    </time>

    <report>
        <no-warnings value="true"/>
        <ignore-errors value="true"/>
        <no-step-log value="true"/>
    </report>

</configuration>
-->

<routes xmlns:xsi="http://www.w3.org/2001/XMLSchema-instance" xsi:noNamespaceSchemaLocation="http://sumo.dlr.de/xsd/routes_file.xsd">
    <vType id="ped_pedestrian" vClass="pedestrian"/>
    <person id="ped0" type="ped_pedestrian" depart="0.00">
        <walk edges="265787703#3 265787703#2 -265787705 265788518 257646377#2 203116403#1 203116403#0 -256727231#0 256727233#7 -256727233#6 -256727233#4 -256727233#2 256727233#1 256727233#0 30620681#25 -30620681#24 -30620681#23 -612054992 612054993#0 618254573#0 272396553 272396552#1 158367908#2 -138949038#0"/>
    </person>
    <person id="ped1" type="ped_pedestrian" depart="5.98">
        <walk edges="138080026#1 256872253#1 138080038#0 138080038#1 138080038#2 138080038#3 138080032#0 -256948188#6 272396566 272396567 257646375#2 257646375#1 257646371#1 257646370 256900767#0 256900767#1 256900767#2 203126696 -30620681#23 -612054992"/>
    </person>
    <person id="ped2" type="ped_pedestrian" depart="11.96">
        <walk edges="30337724#0 -30337724#0 397498078 268921147#1 -129794982#2 -129794982#1 256727231#1 203116403#0 272396560#1 272396560#0 -256948188#8 256948188#7 272396566 272396567"/>
    </person>
    <person id="ped4" type="ped_pedestrian" depart="23.93">
        <walk edges="203116398 256727231#4 -256727231#3 272396577#0 272396576 203116403#0 -256727231#0 -256727230#0 -203098285 -203098280#1 -203098280#0"/>
    </person>
    <person id="ped5" type="ped_pedestrian" depart="29.91">
        <walk edges="-531659318#1 448195260#0 448195259 256727222#1 256727222#0"/>
    </person>
    <person id="ped6" type="ped_pedestrian" depart="35.89">
        <walk edges="-158364458#0 158364458#1 -217703429 217703426 -138076309 134753193#0 -257646366 203116374#7 203116374#6 203116376#0 203116376#1 610411732 440836986 -30620681#8"/>
    </person>
    <person id="ped7" type="ped_pedestrian" depart="41.87">
        <walk edges="268921147#1 158367905 158367910#1 158367910#0 256727231#4 203116398 203116397#2 138080038#0 138080038#1 138080038#2 203116399#0 203116399#1 203116399#2 203116384#4 257646376#1 676613511 276555016#2 676613501 203116375#2 203116375#1 203116375#0 203116386#1 203116386#2 203116386#3 257198655#2 693311542 612586387#1 440836986 -30620681#8 134751614#0 256872249#3 256872249#2 251609791#0 251609791#1 256727242#6 256727242#7 256727242#8"/>
    </person>
    <person id="ped8" type="ped_pedestrian" depart="47.85">
        <walk edges="-544115701#1 544115701#2 268921146 -202957813 202957812 256727231#2 272396577#1 203116397#1 203116397#2 138080038#0 138080038#1 138080038#2 138080038#3 138080032#0 -256948188#5 256948188#4"/>
    </person>
    <person id="ped11" type="ped_pedestrian" depart="65.80">
        <walk edges="203105604 122962182#1 203116402 203116394#1 203116394#2 203116394#3 -30620681#11 203116406 256872249#2 251609791#0 -138949029#1 -272402289 -272402286#4"/>
    </person>
    <person id="ped12" type="ped_pedestrian" depart="71.78">
        <walk edges="676613505#0 676613505#1 138949037#8 138949037#7 138949037#6 138949037#5 138949037#4 138949037#3 138949037#2 138949037#1 138949037#0 -122962182#3 -122962182#2 122962182#1 203126699#0 272402310 203105601#1"/>
    </person>
    <person id="ped13" type="ped_pedestrian" depart="77.76">
        <walk edges="-256727242#2 92837364 -256727242#6"/>
    </person>
    <person id="ped17" type="ped_pedestrian" depart="101.68">
        <walk edges="203116375#2 676613504 610411730#1 610411730#2 276555016#0 217699218#9 264738263 -256948188#4 -256948188#5 272396559#1 272396559#0 203126705#1 203126705#0 158827397#4 -256727233#6 -256727233#4 -256872248#7 256872248#6"/>
    </person>
    <person id="ped20" type="ped_pedestrian" depart="119.63">
        <walk edges="272402286#9 -272402286#8 -272402286#7 -272402286#6 -138949029#2 774031996#6 -138076298#4 217703426 -138076309 256727231#13 -203126691#0 -203126691#1"/>
    </person>
    <person id="ped21" type="ped_pedestrian" depart="125.61">
        <walk edges="-92837394#2 256727242#9 256727242#8 256727242#7 256727242#6 251609791#1 251609791#0 256872249#2 256872249#3 134751614#0 30620681#9 203116392#1 203116392#0 203116387 138949037#0"/>
    </person>
    <person id="ped22" type="ped_pedestrian" depart="131.59">
        <walk edges="-256727231#5 138080026#0 138080026#1 256872253#1 138080038#0 138080038#1 138080038#2 138080038#3 138080032#0 -256948188#5 -256948188#4 264738263 217699218#9 217699218#1 138949037#10 138949037#9 138949037#8 138949037#7 138949037#6 138949037#5 138949037#4 138949037#3 138949037#2 138949037#1 138949037#0 -122962182#3 -122962182#2 122962182#1 122962182#0"/>
    </person>
    <person id="ped23" type="ped_pedestrian" depart="137.57">
        <walk edges="-256872248#1 -256727233#4 -256727233#6 158827397#4 203126705#0 203126705#1 272396559#0 272396559#1 -256948188#5 -256948188#4 256948188#3 -256948188#2 -256948188#1 -256948188#0 134753193#1 134753193#0 -138076309 217703426 -138076298#4 774031996#6 -138076298#2 94874360#1 94874360#2 138080037#1"/>
    </person>
    <person id="ped24" type="ped_pedestrian" depart="143.55">
        <walk edges="264738263 -256948188#4 -256948188#5 272396559#1 272396559#0 203126705#1 203126705#0 158827397#4 -256727233#6 -256727233#4 -256727233#2 256727233#1 256727233#0 -256900772#0 203111182#0"/>
    </person>
    <person id="ped25" type="ped_pedestrian" depart="149.53">
        <walk edges="203116374#2 203116374#3 203116374#4 203116374#5 203116374#6 203116374#7 -257646366 134753193#0 -138076309 217703426 -138076298#4 774031996#6 -138076298#2 -138076298#1 -138076298#0 774031996#3 -448195260#1 -448195260#0"/>
    </person>
    <person id="ped26" type="ped_pedestrian" depart="155.52">
        <walk edges="138076298#1 138076298#2 774031996#6 -138076298#4 217703426 -138076309 134753193#0 134753193#1 -256948188#0 -256948188#1 -256948188#2 256948188#3 -256948188#4 -256948188#5 -256948188#6 272396566 272396567 257646375#2 257646375#1 257646371#1 257646370 256900767#0 256900767#1 256900767#2 203126696 -30620681#23 -612054992 612054993#0 612054993#1"/>
    </person>
    <person id="ped27" type="ped_pedestrian" depart="161.50">
        <walk edges="268921146 -202957813 202957812 256727231#2 272396577#1 203116397#1 203116397#2 138080038#0 138080038#1 138080038#2 203116399#0 203116399#1 203116399#2 203116384#4 203116384#5 257646373#0"/>
    </person>
    <person id="ped28" type="ped_pedestrian" depart="167.48">
        <walk edges="-286653343 251609789#2 286653430"/>
    </person>
    <person id="ped29" type="ped_pedestrian" depart="173.46">
        <walk edges="-272402292 -272402286#7 -272402286#6 -138949029#2 774031996#6 -138076298#4 217703426 -138076309 134753193#0 134753193#1 -256948188#0 676613511 276555016#2 676613501 203116375#3"/>
    </person>
    <person id="ped31" type="ped_pedestrian" depart="185.42">
        <walk edges="256872249#3 134751614#0 -30620681#8 440836986 610411732 203116376#1 203116376#0 203116374#6 203116374#7 -257646366 134753193#0 256727231#13 -256727231#12 -256727231#11 -256727231#10 272396573#2 272396573#1 272396572#0"/>
    </person>
    <person id="ped33" type="ped_pedestrian" depart="197.39">
        <walk edges="-94874360#1 -138076298#2 774031996#6 -138076298#4 217703426 -138076309 134753193#0 134753193#1 -256948188#0 -256948188#1 -256948188#2 256948188#3 -256948188#4 -256948188#5 272396559#1 272396559#0 -256948188#9 -256727230#0 -203098285 -203098280#1 203116388 -203098283#4 -203098282"/>
    </person>
    <person id="ped34" type="ped_pedestrian" depart="203.37">
        <walk edges="158827397#2 134752785#1 257646375#2 272396567 272396566 -256948188#6 -256948188#5 -256948188#4 256948188#3 -256948188#2 -256948188#1 -256948188#0 134753193#1 134753193#0 -138076309 217703426 -138076298#4 774031996#6 138076298#2 138076298#1"/>
    </person>
    <person id="ped35" type="ped_pedestrian" depart="209.35">
        <walk edges="-448195260#1 774031996#3 -138076298#0 -138076298#1 -138076298#2 774031996#6 -138076298#4 217703426 -138076309 134753193#0 134753193#1 -256948188#0 -256948188#1 -256948188#2 256948188#3 -256948188#4 -256948188#5 -256948188#6 272396566 272396567 257646375#2 257646375#1 257646371#1 257646370 256900767#0 256900767#1 256900767#2 203126696 -30620681#23 -612054992 612054993#0 612054993#1 612054990 618254572"/>
    </person>
    <person id="ped37" type="ped_pedestrian" depart="221.31">
        <walk edges="272396545 -217699230#2 -256727242#1 -256727242#2 -256727242#3 -256727242#4 -256727242#5 251609791#1 251609791#0 256872249#2 256872249#3 134751614#0 -30620681#8 440836986 612586387#1 693311542 257198655#2 203116386#3 203116386#2 203116386#1 203116375#0 203116375#1 203116375#2 676613501 276555016#2 676613511 257646376#1 203116384#4 203116399#2 203116399#1 203116385 203116384#1"/>
    </person>
    <person id="ped39" type="ped_pedestrian" depart="233.27">
        <walk edges="134753193#1 -257646366 203116374#7 203116374#6 203116376#0 203116376#1 610411732 440836986 -30620681#8 134751614#0"/>
    </person>
    <person id="ped40" type="ped_pedestrian" depart="239.26">
        <walk edges="256872253#0 256872253#2 138080038#0 138080038#1 138080038#2 138080038#3 138080032#0 -256948188#6 272396566 272396567 257646375#2 134752785#1"/>
    </person>
    <person id="ped42" type="ped_pedestrian" depart="251.22">
        <walk edges="203116384#5 203116384#4 203116399#2 203116399#1 203116399#0 138080038#2 138080038#1 138080038#0 203116397#2 203116397#1 272396577#1 256727231#2 202957812 -202957813 268921146 544115701#2 -544115701#1 -544115701#0"/>
    </person>
    <person id="ped43" type="ped_pedestrian" depart="257.20">
        <walk edges="94874405 94874360#1 -138076298#2 774031996#6 -138076298#4 217703426 -138076309 134753193#0 134753193#1 -256948188#0 -256948188#1 -256948188#2 256948188#3 -256948188#4 -256948188#5 272396559#1 272396559#0 -256948188#9 256727230#0"/>
    </person>
    <person id="ped44" type="ped_pedestrian" depart="263.18">
        <walk edges="-256727242#0 -256727242#1 -256727242#2 -256727242#3 -256727242#4 -256727242#5 251609791#1 251609791#0 256872249#2 256872249#3 134751614#0 -30620681#8 440836986 612586387#1 693311542 257198655#2 257198655#1 203116374#1 203116374#0 138949037#7 138949037#8 138949037#9 138949037#10 217699218#1 217699218#9 264738263 -256948188#4 -256948188#5 272396559#1 272396559#0 -203126693#1"/>
    </person>
    <person id="ped45" type="ped_pedestrian" depart="269.16">
        <walk edges="-256872254 -256872248#5 -256872248#6 -256872248#7 -256727233#4 -256727233#6 158827397#4 203126705#0 203126705#1 272396559#0 272396559#1 -256948188#5 -256948188#4 264738263 217699218#9 276555016#0 610411730#2 610411730#1 676613504 203116375#1 676613503 203116374#6 203116376#0 257198653 203116376#4 203116376#5 258516915#1"/>
    </person>
    <person id="ped46" type="ped_pedestrian" depart="275.14">
        <walk edges="544115701#0 -544115701#0 -544115701#1 544115701#2 268921146 -202957813 202957812 256727231#2 -256727231#3 256727231#4 203116398"/>
    </person>
    <person id="ped47" type="ped_pedestrian" depart="281.13">
        <walk edges="-251609789#4 -251609789#3 251609789#2 29252071 -272396535#1 -272396535#0 256727242#5 251609791#1 251609791#0 256872249#2 256872249#3 134751614#0 -30620681#8 440836986 610411732 203116376#1"/>
    </person>
    <person id="ped48" type="ped_pedestrian" depart="287.11">
        <walk edges="94874388#1 -138080037#1 -94874360#2 -94874360#1 -138076298#2 774031996#6 -138076298#4 217703426 -138076309 134753193#0 134753193#1 -256948188#0 -256948188#1 -256948188#2 256948188#3 -256948188#4 -256948188#5 272396559#1 272396559#0 203126705#1 203126705#0 158827397#4 256727233#6"/>
    </person>
    <person id="ped50" type="ped_pedestrian" depart="299.07">
        <walk edges="-134753193#1 -256948188#0 676613511 276555016#2"/>
    </person>
    <person id="ped51" type="ped_pedestrian" depart="305.05">
        <walk edges="272396570#1 676613510#0 134753193#0 134753193#1 -256948188#0 -256948188#1 -256948188#2 256948188#3 -256948188#4 -256948188#5 272396559#1 272396559#0 203126705#1 203126705#0 158827397#4 -256727233#6 -256727233#4 -256727233#2 256727233#1 256727233#0 -256900772#0 -256900772#1 217703427#0 256727240#0"/>
    </person>
    <person id="ped52" type="ped_pedestrian" depart="311.03">
        <walk edges="138076298#0 138076298#1 138076298#2 774031996#6 -138076298#4 217703426 -138076309 256727231#13 -256727231#12 -256727231#11 -256727231#10 134752444#1 134752444#2 256872253#2 203116404#0 203116390 203116377 257646377#1 265788518 265787703#5"/>
    </person>
    <person id="ped53" type="ped_pedestrian" depart="317.01">
        <walk edges="-256872261#0 -256727233#6 256727233#7 -256727231#0 203116403#0 203116403#1 203116403#2 203116403#3 203116403#4 203116403#5"/>
    </person>
    <person id="ped54" type="ped_pedestrian" depart="322.99">
        <walk edges="203126690#2 203126690#3 203126710#0 203116376#7 203116376#6 203116376#5 203116376#4 257198653 203116376#0 203116374#6 676613503 203116375#1 203116375#2 676613502"/>
    </person>
    <person id="ped56" type="ped_pedestrian" depart="334.96">
        <walk edges="251609789#6 251609789#5 251609789#4 251609789#3 251609789#2 29252071 -272396535#1 -272396535#0 256727242#5 251609791#1 251609791#0 256872249#2 256872249#3 134751614#1 203126690#1 203126690#2 203126690#3 203126710#0 -30620681#1"/>
    </person>
    <person id="ped57" type="ped_pedestrian" depart="340.94">
        <walk edges="590203572 590203573#1 590203571#0 590203570 590203574#1 590203574#0 590196652 590196651 590196653 589592896 588537289#1 588537290#1 588537310#10 588537310#9 588537310#8 588537310#7"/>
    </person>
    <person id="ped58" type="ped_pedestrian" depart="346.92">
        <walk edges="138949037#8 138949037#9 138949037#10 217699218#1 217699218#9 264738263 -256948188#4 -256948188#5 138080032#0 138080038#3 203116403#5 203116404#1 203116390 203116377 257646377#1 265788518 265787703#4 -265787704 265787703#3"/>
    </person>
    <person id="ped59" type="ped_pedestrian" depart="352.90">
        <walk edges="257646372#1 257646376#0 257646376#1 -256948188#0 134753193#1 134753193#0 -138076309 217703426 -138076298#4 774031996#6 -138949029#2 -272402289 -272402286#4 -272402286#3 -272402286#2"/>
    </person>
    <person id="ped60" type="ped_pedestrian" depart="358.88">
        <walk edges="383241555 383241558#0 256727239#2 158367908#2 -138949038#0 251609791#1 256727242#5 256727242#4 256727242#3 256727242#2"/>
    </person>
    <person id="ped61" type="ped_pedestrian" depart="364.86">
        <walk edges="448195260#1 448195260#2 138076298#0 138076298#1 138076298#2 774031996#6 -138076298#4 217703426 -138076309 134753193#0 134753193#1 -256948188#0 -256948188#1 -256948188#2 256948188#3 -256948188#4 -256948188#5 272396559#1 272396559#0 203126705#1 203126705#0 158827397#4 256727233#7"/>
    </person>
    <person id="ped62" type="ped_pedestrian" depart="370.85">
        <walk edges="-122962182#0 122962182#1 -122962182#2 -122962182#3 138949037#0 138949037#1 138949037#2 138949037#3 138949037#4 138949037#5 138949037#6 138949037#7 138949037#8 138949037#9 138949037#10 217699218#1 217699218#9 264738263 -256948188#4 -256948188#5 272396559#1 272396559#0 -256948188#9 -256727230#0 -203098285 203098280#1"/>
    </person>
    <person id="ped63" type="ped_pedestrian" depart="376.83">
        <walk edges="-138080032#0 272396559#1 610411731"/>
    </person>
    <person id="ped65" type="ped_pedestrian" depart="388.79">
        <walk edges="158364460#0 -256727231#7 256727231#8 256727231#9 -256727231#10 -256727231#11 -256727231#12 256727231#13 -138076309 217703426 -138076298#4 774031996#6 -138076298#2 -138076298#1 -138076298#0 774031996#3 -29252069#1 -251609789#0 -251609789#2 -251609782#0 -251609782#1"/>
    </person>
    <person id="ped67" type="ped_pedestrian" depart="400.75">
        <walk edges="-256727233#1 -256727233#2 -256727233#4 -256727233#6 158827397#4 203126705#0 203126705#1 272396559#0 272396559#1 -256948188#5 -256948188#4 256948188#3 -256948188#2 -256948188#1 -256948188#0 134753193#1 134753193#0 -138076309 217703426"/>
    </person>
    <person id="ped68" type="ped_pedestrian" depart="406.73">
        <walk edges="-256727230#0 -256948188#9 272396559#0 272396559#1 -256948188#5 -256948188#4 264738263 217699218#9 217699218#1 138949037#10 138949037#9 138949037#8 138949037#7 203116374#0 203116374#1 257198655#1 257198655#2 693311542 612586387#1 440836986 -30620681#8 30620681#9"/>
    </person>
    <person id="ped69" type="ped_pedestrian" depart="412.72">
        <walk edges="383241558#0 383241558#1 273443765#2 273443765#3 273443765#4 257646379 256727229#1 -256900772#1 -256900772#0 256727233#0 256727233#1 -256727233#2 -256727233#4 -256727233#6 256727233#7 -256948188#9"/>
    </person>
    <person id="ped70" type="ped_pedestrian" depart="418.70">
        <walk edges="217699218#3 217699218#4 217699218#5 138949036#0 138949036#1 138949036#2 138949036#3 -256872248#7 -256872248#6 -256872248#5 -256872254 256872248#4"/>
    </person>
    <person id="ped72" type="ped_pedestrian" depart="430.66">
        <walk edges="203116399#0 203116385 203116384#2 203116379 -256727231#11 -256727231#12 256727231#13 -138076309 217703426 -138076298#4 774031996#6 -138076298#2 -138076298#1 -138076298#0 -448195260#2"/>
    </person>
    <person id="ped74" type="ped_pedestrian" depart="442.62">
        <walk edges="-383241555 187803815#1 187803815#0 273443765#4 257646379 256727229#1 -256900772#1 -256900772#0 256727233#0 256727233#1 -256727233#2 -256727233#4 -256727233#6 256727233#7 -256727231#0 256727231#1 -129794982#1 158367910#3"/>
    </person>
    <person id="ped75" type="ped_pedestrian" depart="448.60">
        <walk edges="94874388#0 138080037#1 94874360#2 94874360#1 -138076298#2 774031996#6 -138076298#4 217703426 -138076309 256727231#13 -256727231#12 -256727231#11 -256727231#10 256727231#9 256727231#8 -256727231#7 256727231#6 -256727231#5 256727231#4 158367910#0 158367910#1 158367905 268921147#1"/>
    </person>
    <person id="ped76" type="ped_pedestrian" depart="454.59">
        <walk edges="203116404#2 203116404#1 203116390 203116377 257646377#1 265788518 -265787705 265787703#1 256727231#2"/>
    </person>
    <person id="ped77" type="ped_pedestrian" depart="460.57">
        <walk edges="-256948188#1 676613511 276555016#2 676613501 203116375#2 203116375#1 203116375#0 203116386#1 203116386#2 203116386#3 257198655#2 693311542 612586387#1 440836986 -30620681#8 134751614#0 256872249#3 256872249#2 251609791#0 251609791#1 -256727242#6 -92837364"/>
    </person>
    <person id="ped78" type="ped_pedestrian" depart="466.55">
        <walk edges="203105602 -30620681#19 133020997#0 133020997#1 133020997#2 133020997#3 133020997#4 134752678#0 203126706 217699218#2 217699218#1 217699218#9 264738263 256948188#4"/>
    </person>
    <person id="ped79" type="ped_pedestrian" depart="472.53">
        <walk edges="-94874360#2 -94874360#1 -138076298#2 774031996#6 -138076298#4 217703426 -138076309 256727231#13 -256727231#12 -256727231#11 -256727231#10 256727231#9 256727231#8 -256727231#7 256727231#6 -256727231#5 256727231#4 -256727231#3 256727231#2 202957812 -202957813 268921146 544115701#2 -544115701#1 -544115701#0"/>
    </person>
    <person id="ped80" type="ped_pedestrian" depart="478.51">
        <walk edges="-256727231#0 203116403#0 203116403#1 203116403#2 203116403#3 203116403#4 203116403#5 203116399#0 203116385 203116384#2 203116379 -256727231#11 -256727231#12 256727231#13 -138076309 30620681#0 203126688#3 258516917"/>
    </person>
    <person id="ped83" type="ped_pedestrian" depart="496.46">
        <walk edges="122962182#5 203105621 138949043#3 138949043#2 138949043#1 138949043#0 203126698 138949037#6 138949037#7 138949037#8 138949037#9 138949037#10 217699218#1 217699218#9 264738263 -256948188#4 -256948188#5 272396559#1"/>
    </person>
    <person id="ped85" type="ped_pedestrian" depart="508.42">
        <walk edges="612054992 30620681#22 30620681#21 -30620681#19 133020997#0 133020997#1 203105622#0 134752200#1 134752200#0 256872259#1"/>
    </person>
    <person id="ped88" type="ped_pedestrian" depart="526.36">
        <walk edges="-256727242#6 251609791#1 251609791#0 256872249#2 256872249#3 134751614#0 -30620681#8 440836986 612586387#1 693311542 257198655#2 203116386#3 203116386#2 203116386#1 203116375#0 203116375#1 203116375#2 676613501 276555016#2 676613511 257646376#1 203116384#4 203116399#2 203116399#1 203116399#0 203116403#5 203116403#4 203116403#3 203116403#2 203116403#1"/>
    </person>
    <person id="ped89" type="ped_pedestrian" depart="532.34">
        <walk edges="203116399#0 138080038#3 138080032#0 272396559#1 272396559#0 203126705#1 203126705#0"/>
    </person>
    <person id="ped90" type="ped_pedestrian" depart="538.32">
        <walk edges="286653430 -251609789#0 -29252069#1 774031996#3 -138076298#0 -138076298#1 -138076298#2 774031996#6 -138076298#4 217703426 -138076309 134753193#0 134753193#1 -256948188#0 -256948188#1 -256948188#2 256948188#3 -256948188#4 -256948188#5 272396563"/>
    </person>
    <person id="ped91" type="ped_pedestrian" depart="544.31">
        <walk edges="774031996#6 -138949029#2 -138949029#1 251609791#1 -256727242#6 -256727242#7 -256727242#8"/>
    </person>
    <person id="ped92" type="ped_pedestrian" depart="550.29">
        <walk edges="203116386#1 203116386#2 203116374#2 257198655#0 138949037#4 138949037#3 138949037#2 138949037#1 138949037#0 -122962182#3 -122962182#2 122962182#1 203105604"/>
    </person>
    <person id="ped94" type="ped_pedestrian" depart="562.25">
        <walk edges="-30620681#21 256900767#3 256900767#2 256900767#1 256900767#0 134752200#5 134752200#4 134752200#3 203105608#0 203105608#1 203105612 203105621 138949043#3 203105603 138949037#2 138949037#3 138949037#4 257198655#0 257198655#1 203116386#4 203116374#4 203116374#5 203116376#0 257198653 203116376#4 203116376#5 203116376#6 203126688#0 203126688#1"/>
    </person>
    <person id="ped95" type="ped_pedestrian" depart="568.23">
        <walk edges="203116398 -256727231#5 256727231#6 -256727231#7 256727231#8 256727231#9 -256727231#10 -256727231#11 -256727231#12 256727231#13 -138076309 217703426 -138076298#4 774031996#6 -138076298#2 94874360#1 94874360#2 138080037#1"/>
    </person>
    <person id="ped98" type="ped_pedestrian" depart="586.18">
        <walk edges="256872248#4 -256872254 -256872248#5 -256872248#6 -256872248#7 -256727233#2 256727233#1 256727233#0 30620681#25 -30620681#24 -30620681#23 30620681#22 30620681#21 -203126708"/>
    </person>
    <person id="ped103" type="ped_pedestrian" depart="616.08">
        <walk edges="203116386#0 203116374#6 203116374#7 -257646366 134753193#0 -138076309 217703426 -138076298#4 774031996#6 -138076298#2 -138076298#1 -138076298#0 774031996#3 -29252069#1 -251609789#0 -251609789#2 -251609782#0 -251609784 -251609782#2"/>
    </person>
    <person id="ped104" type="ped_pedestrian" depart="622.06">
        <walk edges="203116375#3 676613501 276555016#2 676613511 -256948188#0 134753193#1 134753193#0 -138076309 217703426 -138076298#4 774031996#6 138076298#2 138076298#1 -531659318#1 774031998#0"/>
    </person>
    <person id="ped106" type="ped_pedestrian" depart="634.03">
        <walk edges="203126690#3 203126710#0 203116376#7 203116376#6 203116376#5 203116376#4 257198653 203116376#0 203116374#6 676613503 203116375#1 203116375#2 676613501 276555016#2 676613511 257646376#1 203116384#4 203116399#2 203116399#1 203116399#0"/>
    </person>
    <person id="ped107" type="ped_pedestrian" depart="640.01">
        <walk edges="676613505#0 610411730#2 276555016#1 676613511 -256948188#0 134753193#1 134753193#0 -138076309 217703426 -138076298#4 774031996#6 -138076298#2 94874360#1 94874360#2 138080037#1 94874388#0"/>
    </person>
    <person id="ped108" type="ped_pedestrian" depart="645.99">
        <walk edges="256872249#2 256872249#3 134751614#0 -30620681#8 440836986 612586387#1 693311542 257198655#2 257198655#1 203116374#1 203116374#0 138949037#7 138949037#8 138949037#9 138949037#10 217699218#1 276555016#0"/>
    </person>
    <person id="ped109" type="ped_pedestrian" depart="651.97">
        <walk edges="-272402286#4 -272402289 -138949029#1 251609791#0 256872249#2 256872249#3 134751614#0 -30620681#8 440836986 612586387#1 693311542 257198655#2 257198655#1 203116374#1 203116374#0 138949037#7"/>
    </person>
    <person id="ped110" type="ped_pedestrian" depart="657.95">
        <walk edges="676613513#1 676613513#0 138949037#10 217699218#2 203126706 134752678#0 133020997#4 133020997#3 134752200#4 134752200#5 256900767#0 256900767#1 256900767#2"/>
    </person>
    <person id="ped111" type="ped_pedestrian" depart="663.93">
        <walk edges="256727242#5 251609791#1 251609791#0 256872249#2 203116406 -30620681#11 -30620681#12 30620681#13 30620681#14 30620681#15 -30620681#17 30620681#18"/>
    </person>
    <person id="ped112" type="ped_pedestrian" depart="669.92">
        <walk edges="-251609782#0 -251609789#2 -251609789#0 -272396535#1 -272396535#0 256727242#5 251609791#1 251609791#0 256872249#2 256872249#3 134751614#0 30620681#9 203116392#1 203116392#0 203116387 138949037#0 -122962182#4 -122962182#5 134752678#1 203126706 217699218#3 217699218#4 217699218#5 138949036#0 138949036#1 138949036#2 138949036#3 -256727233#2 256727233#1 256727233#0 -256900772#0 256900772#1"/>
    </person>
    <person id="ped114" type="ped_pedestrian" depart="681.88">
        <walk edges="-272402286#6 -138949029#2 774031996#6 -138076298#4 217703426 -138076309 676613510#1 676613509"/>
    </person>
    <person id="ped115" type="ped_pedestrian" depart="687.86">
        <walk edges="-256727231#5 138080026#0 138080026#1 256872253#1 138080038#0 138080038#1 138080038#2 138080038#3 138080032#0 -256948188#5 -256948188#4 264738263 217699218#9 217699218#1 217699218#2 203126706 134752678#0 133020997#4 133020997#3 133020997#2 133020997#1 133020997#0 -30620681#18 -30620681#17"/>
    </person>
    <person id="ped116" type="ped_pedestrian" depart="693.84">
        <walk edges="257198653 203116376#0 203116374#6 676613503 203116375#1 676613504 610411730#1 610411730#2 276555016#0 217699218#9 264738263 -256948188#4 -256948188#5 -256948188#6 256948188#7 272396565"/>
    </person>
    <person id="ped117" type="ped_pedestrian" depart="699.82">
        <walk edges="122962182#3 138949037#0 138949037#1 138949037#2 138949037#3 138949037#4 138949037#5 138949037#6 138949037#7 138949037#8 676613505#1 676613505#0 610411730#2 276555016#1 676613511 -256948188#0"/>
    </person>
    <person id="ped119" type="ped_pedestrian" depart="711.79">
        <walk edges="257198653 203116376#0 203116374#6 676613503 203116375#1 676613504 610411730#1 610411730#2 276555016#0 217699218#9 264738263 -256948188#4 -256948188#5 272396559#1 272396559#0 203126705#1 203126705#0 158827397#4 -256727233#6 -256727233#4 -256727233#2 256727233#1 256727233#0 -256900772#0 -256900772#1 256727229#1 257646379"/>
    </person>
    <person id="ped120" type="ped_pedestrian" depart="717.77">
        <walk edges="203116397#0 272396577#1 272396577#0 272396576 203116403#0 -256727231#0 256727233#7 -256727233#6 -256727233#4 -256727233#2 256727233#1 256727233#0 -256900772#0 256900772#1"/>
    </person>
    <person id="ped121" type="ped_pedestrian" depart="723.75">
        <walk edges="256727231#7 256727231#6 138080026#0 138080026#1 256872253#1 138080038#0 138080038#1 138080038#2 138080038#3 138080032#0 -256948188#6 272396566 272396567 257646375#2 257646375#1 257646371#1 257646370 256900767#0 256900767#1 256900767#2 203126696 -30620681#23 612054992"/>
    </person>
    <person id="ped122" type="ped_pedestrian" depart="729.73">
        <walk edges="-385071607#0 -203105609#2 -203105609#1 -203105609#0 -30620681#17 -30620681#18 -30620681#19 30620681#21 30620681#22 -612054992 612054993#0 618254573#0 272396553 272396552#0 273443765#3"/>
    </person>
    <person id="ped123" type="ped_pedestrian" depart="735.71">
        <walk edges="129794982#1 256727231#2 272396577#1 203116397#1 203116397#2 138080038#0 203116384#0 203116384#1"/>
    </person>
    <person id="ped124" type="ped_pedestrian" depart="741.69">
        <walk edges="272396562 272396560#0 203126705#1 203126705#0 158827397#3 158827397#2 203105617#3 203105617#2 203105617#1 203105617#0 256900767#1 256900767#2 203126696 -30620681#23 -612054992 612054993#0 618254573#0 272396553 272396552#1 138949038#1"/>
    </person>
    <person id="ped125" type="ped_pedestrian" depart="747.67">
        <walk edges="158827397#3 158827397#2 203105617#3 203105617#2 203105617#1 203105617#0 256900767#1 256900767#2 256900767#3 30620681#22"/>
    </person>
    <person id="ped126" type="ped_pedestrian" depart="753.65">
        <walk edges="-256727231#10 203116379 203116384#3 203116384#4 203116384#5 257646373#1 256948188#3 -256948188#4 203126692"/>
    </person>
    <person id="ped127" type="ped_pedestrian" depart="759.64">
        <walk edges="96751458#0 -96751458#0 -286653343 251609789#2 29252071 29252069#1 774031996#3 138080036#0 -138080037#1 94874388#1"/>
    </person>