<?xml version="1.0" encoding="UTF-8"?>
<!-- generated on 2020-04-17 11:39:03.541292 by osmWebWizard.py v1_5_0+1147-7decef50d5
  options: 
-->
<routes xmlns:xsi="http://www.w3.org/2001/XMLSchema-instance" xsi:noNamespaceSchemaLocation="http://sumo.dlr.de/xsd/routes_file.xsd">
    <vType id="ped_pedestrian" vClass="pedestrian"/>
    <person id="ped0" depart="0.00" type="ped_pedestrian">
        <walk from="265787703#3" to="-138949038#0"/>
    </person>
    <person id="ped1" depart="5.98" type="ped_pedestrian">
        <walk from="138080026#1" to="-612054992"/>
    </person>
    <person id="ped2" depart="11.96" type="ped_pedestrian">
        <walk from="30337724#0" to="272396567"/>
    </person>
    <person id="ped3" depart="17.94" type="ped_pedestrian">
        <walk from="590188549#1" to="-256727233#2"/>
    </person>
    <person id="ped4" depart="23.93" type="ped_pedestrian">
        <walk from="203116398" to="-203098280#0"/>
    </person>
    <person id="ped5" depart="29.91" type="ped_pedestrian">
        <walk from="-531659318#1" to="256727222#0"/>
    </person>
    <person id="ped6" depart="35.89" type="ped_pedestrian">
        <walk from="-158364458#0" to="-30620681#8"/>
    </person>
    <person id="ped7" depart="41.87" type="ped_pedestrian">
        <walk from="268921147#1" to="256727242#8"/>
    </person>
    <person id="ped8" depart="47.85" type="ped_pedestrian">
        <walk from="-544115701#1" to="256948188#4"/>
    </person>
    <person id="ped9" depart="53.83" type="ped_pedestrian">
        <walk from="581554120" to="-129794982#1"/>
    </person>
    <person id="ped10" depart="59.81" type="ped_pedestrian">
        <walk from="581554118#3" to="272402286#2"/>
    </person>
    <person id="ped11" depart="65.80" type="ped_pedestrian">
        <walk from="203105604" to="-272402286#4"/>
    </person>
    <person id="ped12" depart="71.78" type="ped_pedestrian">
        <walk from="676613505#0" to="203105601#1"/>
    </person>
    <person id="ped13" depart="77.76" type="ped_pedestrian">
        <walk from="-256727242#2" to="-256727242#6"/>
    </person>
    <person id="ped14" depart="83.74" type="ped_pedestrian">
        <walk from="588537289#0" to="257646366"/>
    </person>
    <person id="ped15" depart="89.72" type="ped_pedestrian">
        <walk from="581554118#4" to="289048418#0"/>
    </person>
    <person id="ped16" depart="95.70" type="ped_pedestrian">
        <walk from="256727239#3" to="694638353"/>
    </person>
    <person id="ped17" depart="101.68" type="ped_pedestrian">
        <walk from="203116375#2" to="256872248#6"/>
    </person>
    <person id="ped18" depart="107.66" type="ped_pedestrian">
        <walk from="581554133#10" to="257646377#2"/>
    </person>
    <person id="ped19" depart="113.65" type="ped_pedestrian">
        <walk from="588537308" to="256900767#0"/>
    </person>
    <person id="ped20" depart="119.63" type="ped_pedestrian">
        <walk from="272402286#9" to="-203126691#1"/>
    </person>
    <person id="ped21" depart="125.61" type="ped_pedestrian">
        <walk from="-92837394#2" to="138949037#0"/>
    </person>
    <person id="ped22" depart="131.59" type="ped_pedestrian">
        <walk from="-256727231#5" to="122962182#0"/>
    </person>
    <person id="ped23" depart="137.57" type="ped_pedestrian">
        <walk from="-256872248#1" to="138080037#1"/>
    </person>
    <person id="ped24" depart="143.55" type="ped_pedestrian">
        <walk from="264738263" to="203111182#0"/>
    </person>
    <person id="ped25" depart="149.53" type="ped_pedestrian">
        <walk from="203116374#2" to="-448195260#0"/>
    </person>
    <person id="ped26" depart="155.52" type="ped_pedestrian">
        <walk from="138076298#1" to="612054993#1"/>
    </person>
    <person id="ped27" depart="161.50" type="ped_pedestrian">
        <walk from="268921146" to="257646373#0"/>
    </person>
    <person id="ped28" depart="167.48" type="ped_pedestrian">
        <walk from="-286653343" to="286653430"/>
    </person>
    <person id="ped29" depart="173.46" type="ped_pedestrian">
        <walk from="-272402292" to="203116375#3"/>
    </person>
    <person id="ped30" depart="179.44" type="ped_pedestrian">
        <walk from="8035865#2" to="265787703#4"/>
    </person>
    <person id="ped31" depart="185.42" type="ped_pedestrian">
        <walk from="256872249#3" to="272396572#0"/>
    </person>
    <person id="ped32" depart="191.40" type="ped_pedestrian">
        <walk from="581560434" to="448195259"/>
    </person>
    <person id="ped33" depart="197.39" type="ped_pedestrian">
        <walk from="-94874360#1" to="-203098282"/>
    </person>
    <person id="ped34" depart="203.37" type="ped_pedestrian">
        <walk from="158827397#2" to="138076298#1"/>
    </person>
    <person id="ped35" depart="209.35" type="ped_pedestrian">
        <walk from="-448195260#1" to="618254572"/>
    </person>
    <person id="ped36" depart="215.33" type="ped_pedestrian">
        <walk from="590170405" to="158827397#2"/>
    </person>
    <person id="ped37" depart="221.31" type="ped_pedestrian">
        <walk from="272396545" to="203116384#1"/>
    </person>
    <person id="ped38" depart="227.29" type="ped_pedestrian">
        <walk from="590203573#1" to="203126693#1"/>
    </person>
    <person id="ped39" depart="233.27" type="ped_pedestrian">
        <walk from="134753193#1" to="134751614#0"/>
    </person>
    <person id="ped40" depart="239.26" type="ped_pedestrian">
        <walk from="256872253#0" to="134752785#1"/>
    </person>
    <person id="ped41" depart="245.24" type="ped_pedestrian">
        <walk from="256948188#0" to="590188549#7"/>
    </person>
    <person id="ped42" depart="251.22" type="ped_pedestrian">
        <walk from="203116384#5" to="-544115701#0"/>
    </person>
    <person id="ped43" depart="257.20" type="ped_pedestrian">
        <walk from="94874405" to="256727230#0"/>
    </person>
    <person id="ped44" depart="263.18" type="ped_pedestrian">
        <walk from="-256727242#0" to="-203126693#1"/>
    </person>
    <person id="ped45" depart="269.16" type="ped_pedestrian">
        <walk from="-256872254" to="258516915#1"/>
    </person>
    <person id="ped46" depart="275.14" type="ped_pedestrian">
        <walk from="544115701#0" to="203116398"/>
    </person>
    <person id="ped47" depart="281.13" type="ped_pedestrian">
        <walk from="-251609789#4" to="203116376#1"/>
    </person>
    <person id="ped48" depart="287.11" type="ped_pedestrian">
        <walk from="94874388#1" to="256727233#6"/>
    </person>
    <person id="ped49" depart="293.09" type="ped_pedestrian">
        <walk from="693311542" to="588537305#3"/>
    </person>
    <person id="ped50" depart="299.07" type="ped_pedestrian">
        <walk from="-134753193#1" to="276555016#2"/>
    </person>
    <person id="ped51" depart="305.05" type="ped_pedestrian">
        <walk from="272396570#1" to="256727240#0"/>
    </person>
    <person id="ped52" depart="311.03" type="ped_pedestrian">
        <walk from="138076298#0" to="265787703#5"/>
    </person>
    <person id="ped53" depart="317.01" type="ped_pedestrian">
        <walk from="-256872261#0" to="203116403#5"/>
    </person>
    <person id="ped54" depart="322.99" type="ped_pedestrian">
        <walk from="203126690#2" to="676613502"/>
    </person>
    <person id="ped55" depart="328.98" type="ped_pedestrian">
        <walk from="590170402" to="134753193#0"/>
    </person>
    <person id="ped56" depart="334.96" type="ped_pedestrian">
        <walk from="251609789#6" to="-30620681#1"/>
    </person>
    <person id="ped57" depart="340.94" type="ped_pedestrian">
        <walk from="590203572" to="588537310#7"/>
    </person>
    <person id="ped58" depart="346.92" type="ped_pedestrian">
        <walk from="138949037#8" to="265787703#3"/>
    </person>
    <person id="ped59" depart="352.90" type="ped_pedestrian">
        <walk from="257646372#1" to="-272402286#2"/>
    </person>
    <person id="ped60" depart="358.88" type="ped_pedestrian">
        <walk from="383241555" to="256727242#2"/>
    </person>
    <person id="ped61" depart="364.86" type="ped_pedestrian">
        <walk from="448195260#1" to="256727233#7"/>
    </person>
    <person id="ped62" depart="370.85" type="ped_pedestrian">
        <walk from="-122962182#0" to="203098280#1"/>
    </person>
    <person id="ped63" depart="376.83" type="ped_pedestrian">
        <walk from="-138080032#0" to="610411731"/>
    </person>
    <person id="ped64" depart="382.81" type="ped_pedestrian">
        <walk from="590170408" to="581554133#12"/>
    </person>
    <person id="ped65" depart="388.79" type="ped_pedestrian">
        <walk from="158364460#0" to="-251609782#1"/>
    </person>
    <person id="ped66" depart="394.77" type="ped_pedestrian">
        <walk from="590170408" to="618262401"/>
    </person>
    <person id="ped67" depart="400.75" type="ped_pedestrian">
        <walk from="-256727233#1" to="217703426"/>
    </person>
    <person id="ped68" depart="406.73" type="ped_pedestrian">
        <walk from="-256727230#0" to="30620681#9"/>
    </person>
    <person id="ped69" depart="412.72" type="ped_pedestrian">
        <walk from="383241558#0" to="-256948188#9"/>
    </person>
    <person id="ped70" depart="418.70" type="ped_pedestrian">
        <walk from="217699218#3" to="256872248#4"/>
    </person>
    <person id="ped71" depart="424.68" type="ped_pedestrian">
        <walk from="134753686" to="588537310#9"/>
    </person>
    <person id="ped72" depart="430.66" type="ped_pedestrian">
        <walk from="203116399#0" to="-448195260#2"/>
    </person>
    <person id="ped73" depart="436.64" type="ped_pedestrian">
        <walk from="256727242#2" to="289048418#0"/>
    </person>
    <person id="ped74" depart="442.62" type="ped_pedestrian">
        <walk from="-383241555" to="158367910#3"/>
    </person>
    <person id="ped75" depart="448.60" type="ped_pedestrian">
        <walk from="94874388#0" to="268921147#1"/>
    </person>
    <person id="ped76" depart="454.59" type="ped_pedestrian">
        <walk from="203116404#2" to="256727231#2"/>
    </person>
    <person id="ped77" depart="460.57" type="ped_pedestrian">
        <walk from="-256948188#1" to="-92837364"/>
    </person>
    <person id="ped78" depart="466.55" type="ped_pedestrian">
        <walk from="203105602" to="256948188#4"/>
    </person>
    <person id="ped79" depart="472.53" type="ped_pedestrian">
        <walk from="-94874360#2" to="-544115701#0"/>
    </person>
    <person id="ped80" depart="478.51" type="ped_pedestrian">
        <walk from="-256727231#0" to="258516917"/>
    </person>
    <person id="ped81" depart="484.49" type="ped_pedestrian">
        <walk from="-94874360#1" to="590196653"/>
    </person>
    <person id="ped82" depart="490.47" type="ped_pedestrian">
        <walk from="588537305#2" to="-256727231#0"/>
    </person>
    <person id="ped83" depart="496.46" type="ped_pedestrian">
        <walk from="122962182#5" to="272396559#1"/>
    </person>
    <person id="ped84" depart="502.44" type="ped_pedestrian">
        <walk from="-519981167#1" to="-258132911#0"/>
    </person>
    <person id="ped85" depart="508.42" type="ped_pedestrian">
        <walk from="612054992" to="256872259#1"/>
    </person>
    <person id="ped86" depart="514.40" type="ped_pedestrian">
        <walk from="203126711" to="519981167#1"/>
    </person>
    <person id="ped87" depart="520.38" type="ped_pedestrian">
        <walk from="581554118#4" to="-30620681#21"/>
    </person>
    <person id="ped88" depart="526.36" type="ped_pedestrian">
        <walk from="-256727242#6" to="203116403#1"/>
    </person>
    <person id="ped89" depart="532.34" type="ped_pedestrian">
        <walk from="203116399#0" to="203126705#0"/>
    </person>
    <person id="ped90" depart="538.32" type="ped_pedestrian">
        <walk from="286653430" to="272396563"/>
    </person>
    <person id="ped91" depart="544.31" type="ped_pedestrian">
        <walk from="774031996#6" to="-256727242#8"/>
    </person>
    <person id="ped92" depart="550.29" type="ped_pedestrian">
        <walk from="203116386#1" to="203105604"/>
    </person>
    <person id="ped93" depart="556.27" type="ped_pedestrian">
        <walk from="588537308" to="134751614#2"/>
    </person>
    <person id="ped94" depart="562.25" type="ped_pedestrian">
        <walk from="-30620681#21" to="203126688#1"/>
    </person>
    <person id="ped95" depart="568.23" type="ped_pedestrian">
        <walk from="203116398" to="138080037#1"/>
    </person>
    <person id="ped96" depart="574.21" type="ped_pedestrian">
        <walk from="134751614#3" to="590205660"/>
    </person>
    <person id="ped97" depart="580.19" type="ped_pedestrian">
        <walk from="203126678#1" to="588537308"/>
    </person>
    <person id="ped98" depart="586.18" type="ped_pedestrian">
        <walk from="256872248#4" to="-203126708"/>
    </person>
    <person id="ped99" depart="592.16" type="ped_pedestrian">
        <walk from="96751458#1" to="581554133#3"/>
    </person>
    <person id="ped100" depart="598.14" type="ped_pedestrian">
        <walk from="676613513#1" to="590212072"/>
    </person>
    <person id="ped101" depart="604.12" type="ped_pedestrian">
        <walk from="588537289#1" to="-286652481#0"/>
    </person>
    <person id="ped102" depart="610.10" type="ped_pedestrian">
        <walk from="217703426" to="-519981167#1"/>
    </person>
    <person id="ped103" depart="616.08" type="ped_pedestrian">
        <walk from="203116386#0" to="-251609782#2"/>
    </person>
    <person id="ped104" depart="622.06" type="ped_pedestrian">
        <walk from="203116375#3" to="774031998#0"/>
    </person>
    <person id="ped105" depart="628.05" type="ped_pedestrian">
        <walk from="134753686" to="519981167#1"/>
    </person>
    <person id="ped106" depart="634.03" type="ped_pedestrian">
        <walk from="203126690#3" to="203116399#0"/>
    </person>
    <person id="ped107" depart="640.01" type="ped_pedestrian">
        <walk from="676613505#0" to="94874388#0"/>
    </person>
    <person id="ped108" depart="645.99" type="ped_pedestrian">
        <walk from="256872249#2" to="276555016#0"/>
    </person>
    <person id="ped109" depart="651.97" type="ped_pedestrian">
        <walk from="-272402286#4" to="138949037#7"/>
    </person>
    <person id="ped110" depart="657.95" type="ped_pedestrian">
        <walk from="676613513#1" to="256900767#2"/>
    </person>
    <person id="ped111" depart="663.93" type="ped_pedestrian">
        <walk from="256727242#5" to="30620681#18"/>
    </person>
    <person id="ped112" depart="669.92" type="ped_pedestrian">
        <walk from="-251609782#0" to="256900772#1"/>
    </person>
    <person id="ped113" depart="675.90" type="ped_pedestrian">
        <walk from="251609791#1" to="588537293"/>
    </person>
    <person id="ped114" depart="681.88" type="ped_pedestrian">
        <walk from="-272402286#6" to="676613509"/>
    </person>
    <person id="ped115" depart="687.86" type="ped_pedestrian">
        <walk from="-256727231#5" to="-30620681#17"/>
    </person>
    <person id="ped116" depart="693.84" type="ped_pedestrian">
        <walk from="257198653" to="272396565"/>
    </person>
    <person id="ped117" depart="699.82" type="ped_pedestrian">
        <walk from="122962182#3" to="-256948188#0"/>
    </person>
    <person id="ped118" depart="705.80" type="ped_pedestrian">
        <walk from="590188548" to="134751614#0"/>
    </person>
    <person id="ped119" depart="711.79" type="ped_pedestrian">
        <walk from="257198653" to="257646379"/>
    </person>
    <person id="ped120" depart="717.77" type="ped_pedestrian">
        <walk from="203116397#0" to="256900772#1"/>
    </person>
    <person id="ped121" depart="723.75" type="ped_pedestrian">
        <walk from="256727231#7" to="612054992"/>
    </person>
    <person id="ped122" depart="729.73" type="ped_pedestrian">
        <walk from="-385071607#0" to="273443765#3"/>
    </person>
    <person id="ped123" depart="735.71" type="ped_pedestrian">
        <walk from="129794982#1" to="203116384#1"/>
    </person>
    <person id="ped124" depart="741.69" type="ped_pedestrian">
        <walk from="272396562" to="138949038#1"/>
    </person>
    <person id="ped125" depart="747.67" type="ped_pedestrian">
        <walk from="158827397#3" to="30620681#22"/>
    </person>
    <person id="ped126" depart="753.65" type="ped_pedestrian">
        <walk from="-256727231#10" to="203126692"/>
    </person>
    <person id="ped127" depart="759.64" type="ped_pedestrian">
        <walk from="96751458#0" to="94874388#1"/>
    </person>
    <person id="ped128" depart="765.62" type="ped_pedestrian">
        <walk from="-256727231#10" to="-519981167#0"/>
    </person>
    <person id="ped129" depart="771.60" type="ped_pedestrian">
        <walk from="134753686" to="612054989"/>
    </person>
    <person id="ped130" depart="777.58" type="ped_pedestrian">
        <walk from="590188537" to="590188536"/>
    </person>
    <person id="ped131" depart="783.56" type="ped_pedestrian">
        <walk from="203116374#1" to="-272402286#7"/>
    </person>
    <person id="ped132" depart="789.54" type="ped_pedestrian">
        <walk from="581554133#14" to="272402286#8"/>
    </person>
    <person id="ped133" depart="795.52" type="ped_pedestrian">
        <walk from="257646374" to="774031998#2"/>
    </person>
    <person id="ped134" depart="801.51" type="ped_pedestrian">
        <walk from="272396536#1" to="-129794982#2"/>
    </person>
    <person id="ped135" depart="807.49" type="ped_pedestrian">
        <walk from="581554123" to="138949037#9"/>
    </person>
    <person id="ped136" depart="813.47" type="ped_pedestrian">
        <walk from="272396553" to="618254569"/>
    </person>
    <person id="ped137" depart="819.45" type="ped_pedestrian">
        <walk from="-263297643#0" to="-256900768#1"/>
    </person>
    <person id="ped138" depart="825.43" type="ped_pedestrian">
        <walk from="-256872248#7" to="256872248#7"/>
    </person>
    <person id="ped139" depart="831.41" type="ped_pedestrian">
        <walk from="138076305" to="257646369"/>
    </person>
    <person id="ped140" depart="837.39" type="ped_pedestrian">
        <walk from="273443765#5" to="-385071607#0"/>
    </person>
    <person id="ped141" depart="843.38" type="ped_pedestrian">
        <walk from="263297643#1" to="134753193#1"/>
    </person>
    <person id="ped142" depart="849.36" type="ped_pedestrian">
        <walk from="217703428" to="590196653"/>
    </person>
    <person id="ped143" depart="855.34" type="ped_pedestrian">
        <walk from="588537286#0" to="-256727242#2"/>
    </person>
    <person id="ped144" depart="861.32" type="ped_pedestrian">
        <walk from="203116399#0" to="138080032#0"/>
    </person>
    <person id="ped145" depart="867.30" type="ped_pedestrian">
        <walk from="-122962182#3" to="385071608"/>
    </person>
    <person id="ped146" depart="873.28" type="ped_pedestrian">
        <walk from="265787703#1" to="134752785#1"/>
    </person>
    <person id="ped147" depart="879.26" type="ped_pedestrian">
        <walk from="30620681#11" to="256872248#6"/>
    </person>
    <person id="ped148" depart="885.25" type="ped_pedestrian">
        <walk from="203116401#1" to="-134752444#2"/>
    </person>
    <person id="ped149" depart="891.23" type="ped_pedestrian">
        <walk from="-256727231#12" to="590188540"/>
    </person>
    <person id="ped150" depart="897.21" type="ped_pedestrian">
        <walk from="590196652" to="256727242#8"/>
    </person>
    <person id="ped151" depart="903.19" type="ped_pedestrian">
        <walk from="581554133#2" to="256900768#2"/>
    </person>
    <person id="ped152" depart="909.17" type="ped_pedestrian">
        <walk from="-272396548" to="-256948188#8"/>
    </person>
    <person id="ped153" depart="915.15" type="ped_pedestrian">
        <walk from="158367905" to="590192578"/>
    </person>
    <person id="ped154" depart="921.13" type="ped_pedestrian">
        <walk from="581554111" to="588537305#3"/>
    </person>
    <person id="ped155" depart="927.11" type="ped_pedestrian">
        <walk from="590192578" to="-448195260#0"/>
    </person>
    <person id="ped156" depart="933.10" type="ped_pedestrian">
        <walk from="134751614#3" to="-256872248#3"/>
    </person>
    <person id="ped157" depart="939.08" type="ped_pedestrian">
        <walk from="450539357#0" to="590188541"/>
    </person>
    <person id="ped158" depart="945.06" type="ped_pedestrian">
        <walk from="203116387" to="258132910"/>
    </person>
    <person id="ped159" depart="951.04" type="ped_pedestrian">
        <walk from="-272402286#3" to="610411732"/>
    </person>
    <person id="ped160" depart="957.02" type="ped_pedestrian">
        <walk from="588537310#10" to="696655190"/>
    </person>
    <person id="ped161" depart="963.00" type="ped_pedestrian">
        <walk from="581554122#0" to="590188538"/>
    </person>
    <person id="ped162" depart="968.98" type="ped_pedestrian">
        <walk from="-138949029#2" to="30337724#0"/>
    </person>
    <person id="ped163" depart="974.97" type="ped_pedestrian">
        <walk from="203098285" to="610411733"/>
    </person>
    <person id="ped164" depart="980.95" type="ped_pedestrian">
        <walk from="581554117" to="588537310#1"/>
    </person>
    <person id="ped165" depart="986.93" type="ped_pedestrian">
        <walk from="581554122#0" to="138076298#0"/>
    </person>
    <person id="ped166" depart="992.91" type="ped_pedestrian">
        <walk from="52246104" to="-256872250"/>
    </person>
    <person id="ped167" depart="998.89" type="ped_pedestrian">
        <walk from="588537310#9" to="588537305#1"/>
    </person>
    <person id="ped168" depart="1004.87" type="ped_pedestrian">
        <walk from="-612054992" to="581554123"/>
    </person>
    <person id="ped169" depart="1010.85" type="ped_pedestrian">
        <walk from="203126694" to="158364458#0"/>
    </person>
    <person id="ped170" depart="1016.84" type="ped_pedestrian">
        <walk from="556235180" to="-92837394#2"/>
    </person>
    <person id="ped171" depart="1022.82" type="ped_pedestrian">
        <walk from="-138949029#1" to="-30620681#24"/>
    </person>
    <person id="ped172" depart="1028.80" type="ped_pedestrian">
        <walk from="203098283#1" to="588537310#10"/>
    </person>
    <person id="ped173" depart="1034.78" type="ped_pedestrian">
        <walk from="676613512#2" to="138080038#0"/>
    </person>
    <person id="ped174" depart="1040.76" type="ped_pedestrian">
        <walk from="265787703#5" to="203116384#5"/>
    </person>
    <person id="ped175" depart="1046.74" type="ped_pedestrian">
        <walk from="774031996#2" to="256727239#3"/>
    </person>
    <person id="ped176" depart="1052.72" type="ped_pedestrian">
        <walk from="618254569" to="-256900768#1"/>
    </person>
    <person id="ped177" depart="1058.71" type="ped_pedestrian">
        <walk from="693311542" to="-30620681#0"/>
    </person>
    <person id="ped178" depart="1064.69" type="ped_pedestrian">
        <walk from="676613510#1" to="134753686"/>
    </person>
    <person id="ped179" depart="1070.67" type="ped_pedestrian">
        <walk from="-256872252" to="203116403#5"/>
    </person>
    <person id="ped180" depart="1076.65" type="ped_pedestrian">
        <walk from="286653430" to="158827397#1"/>
    </person>
    <person id="ped181" depart="1082.63" type="ped_pedestrian">
        <walk from="257646371#1" to="256727231#0"/>
    </person>
    <person id="ped182" depart="1088.61" type="ped_pedestrian">
        <walk from="203116376#5" to="256900767#0"/>
    </person>
    <person id="ped183" depart="1094.59" type="ped_pedestrian">
        <walk from="134752200#4" to="272402294"/>
    </person>
    <person id="ped184" depart="1100.58" type="ped_pedestrian">
        <walk from="-122962182#1" to="590210132"/>
    </person>
    <person id="ped185" depart="1106.56" type="ped_pedestrian">
        <walk from="256727242#1" to="276555016#1"/>
    </person>
    <person id="ped186" depart="1112.54" type="ped_pedestrian">
        <walk from="30620681#11" to="272396560#0"/>
    </person>
    <person id="ped187" depart="1118.52" type="ped_pedestrian">
        <walk from="203111182#0" to="-256727230#1"/>
    </person>
    <person id="ped188" depart="1124.50" type="ped_pedestrian">
        <walk from="272396554" to="203098283#5"/>
    </person>
    <person id="ped189" depart="1130.48" type="ped_pedestrian">
        <walk from="158827397#1" to="588537289#0"/>
    </person>
    <person id="ped190" depart="1136.46" type="ped_pedestrian">
        <walk from="276555016#1" to="138949038#1"/>
    </person>
    <person id="ped191" depart="1142.44" type="ped_pedestrian">
        <walk from="158367908#2" to="203116389"/>
    </person>
    <person id="ped192" depart="1148.43" type="ped_pedestrian">
        <walk from="203116386#1" to="138949037#6"/>
    </person>
    <person id="ped193" depart="1154.41" type="ped_pedestrian">
        <walk from="-256948188#8" to="203116397#1"/>
    </person>
    <person id="ped194" depart="1160.39" type="ped_pedestrian">
        <walk from="618254570" to="272396567"/>
    </person>
    <person id="ped195" depart="1166.37" type="ped_pedestrian">
        <walk from="590196651" to="257646376#1"/>
    </person>
    <person id="ped196" depart="1172.35" type="ped_pedestrian">
        <walk from="138949043#0" to="256872248#2"/>
    </person>
    <person id="ped197" depart="1178.33" type="ped_pedestrian">
        <walk from="-122962182#0" to="138949036#2"/>
    </person>
    <person id="ped198" depart="1184.31" type="ped_pedestrian">
        <walk from="203116403#0" to="256900767#3"/>
    </person>
    <person id="ped199" depart="1190.30" type="ped_pedestrian">
        <walk from="272396536#1" to="203126701"/>
    </person>
    <person id="ped200" depart="1196.28" type="ped_pedestrian">
        <walk from="203126677" to="-519981167#1"/>
    </person>
    <person id="ped201" depart="1202.26" type="ped_pedestrian">
        <walk from="203126711" to="590192582"/>
    </person>
    <person id="ped202" depart="1208.24" type="ped_pedestrian">
        <walk from="581554111" to="-286653249"/>
    </person>
    <person id="ped203" depart="1214.22" type="ped_pedestrian">
        <walk from="-256727233#0" to="256727231#12"/>
    </person>
    <person id="ped204" depart="1220.20" type="ped_pedestrian">
        <walk from="263297643#0" to="203100001#1"/>
    </person>
    <person id="ped205" depart="1226.18" type="ped_pedestrian">
        <walk from="581554124#0" to="30620681#22"/>
    </person>
    <person id="ped206" depart="1232.17" type="ped_pedestrian">
        <walk from="272396563" to="-92837364"/>
    </person>
    <person id="ped207" depart="1238.15" type="ped_pedestrian">
        <walk from="-30620681#8" to="-138949029#2"/>
    </person>
    <person id="ped208" depart="1244.13" type="ped_pedestrian">
        <walk from="133020997#4" to="217699218#2"/>
    </person>
    <person id="ped209" depart="1250.11" type="ped_pedestrian">
        <walk from="588537290#0" to="-256727231#10"/>
    </person>
    <person id="ped210" depart="1256.09" type="ped_pedestrian">
        <walk from="203116392#1" to="258516916#0"/>
    </person>
    <person id="ped211" depart="1262.07" type="ped_pedestrian">
        <walk from="-30620681#25" to="272402286#1"/>
    </person>
    <person id="ped212" depart="1268.05" type="ped_pedestrian">
        <walk from="251609782#2" to="133020997#3"/>
    </person>
    <person id="ped213" depart="1274.04" type="ped_pedestrian">
        <walk from="272396546" to="-122962182#5"/>
    </person>
    <person id="ped214" depart="1280.02" type="ped_pedestrian">
        <walk from="30620681#21" to="385071607#2"/>
    </person>
    <person id="ped215" depart="1286.00" type="ped_pedestrian">
        <walk from="-256872248#7" to="203116399#2"/>
    </person>
    <person id="ped216" depart="1291.98" type="ped_pedestrian">
        <walk from="-30337724#0" to="676613505#1"/>
    </person>
    <person id="ped217" depart="1297.96" type="ped_pedestrian">
        <walk from="256727231#3" to="-203126708"/>
    </person>
    <person id="ped218" depart="1303.94" type="ped_pedestrian">
        <walk from="134751614#3" to="588537289#1"/>
    </person>
    <person id="ped219" depart="1309.92" type="ped_pedestrian">
        <walk from="203126691#1" to="581554116"/>
    </person>
    <person id="ped220" depart="1315.91" type="ped_pedestrian">
        <walk from="272396558" to="774031998#2"/>
    </person>
    <person id="ped221" depart="1321.89" type="ped_pedestrian">
        <walk from="257198654#1" to="676613498"/>
    </person>
    <person id="ped222" depart="1327.87" type="ped_pedestrian">
        <walk from="590188549#0" to="257646375#1"/>
    </person>
    <person id="ped223" depart="1333.85" type="ped_pedestrian">
        <walk from="276555016#1" to="251615405"/>
    </person>
    <person id="ped224" depart="1339.83" type="ped_pedestrian">
        <walk from="581554133#11" to="256872248#2"/>
    </person>
    <person id="ped225" depart="1345.81" type="ped_pedestrian">
        <walk from="590188549#6" to="30620681#13"/>
    </person>
    <person id="ped226" depart="1351.79" type="ped_pedestrian">
        <walk from="217699218#2" to="134752678#1"/>
    </person>
    <person id="ped227" depart="1357.77" type="ped_pedestrian">
        <walk from="134751614#1" to="265787703#1"/>
    </person>
    <person id="ped228" depart="1363.76" type="ped_pedestrian">
        <walk from="383241558#0" to="256727231#6"/>
    </person>
    <person id="ped229" depart="1369.74" type="ped_pedestrian">
        <walk from="258516915#0" to="138080026#0"/>
    </person>
    <person id="ped230" depart="1375.72" type="ped_pedestrian">
        <walk from="-256727231#3" to="138949036#1"/>
    </person>
    <person id="ped231" depart="1381.70" type="ped_pedestrian">