<?xml version="1.0" encoding="UTF-8"?>

<!-- generated on Fri Apr 17 11:39:01 2020 by Eclipse SUMO netconvert Version 1.5.0
<configuration xmlns:xsi="http://www.w3.org/2001/XMLSchema-instance" xsi:noNamespaceSchemaLocation="http://sumo.dlr.de/xsd/netconvertConfiguration.xsd">

    <input>
        <type-files value="/usr/share/sumo/data/typemap/osmNetconvert.typ.xml,/usr/share/sumo/data/typemap/osmNetconvertUrbanDe.typ.xml,/usr/share/sumo/data/typemap/osmNetconvertPedestrians.typ.xml"/>
        <osm-files value="osm_bbox.osm.xml"/>
    </input>

    <output>
        <output-file value="osm.net.xml"/>
        <output.street-names value="true"/>
        <output.original-names value="true"/>
    </output>

    <projection>
        <proj.utm value="true"/>
    </projection>

    <processing>
        <geometry.remove value="true"/>
        <roundabouts.guess value="true"/>
    </processing>

    <tls_building>
        <tls.discard-simple value="true"/>
        <tls.join value="true"/>
        <tls.guess-signals value="true"/>
        <tls.default-type value="actuated"/>
    </tls_building>

    <ramp_guessing>
        <ramps.guess value="true"/>
    </ramp_guessing>

    <junctions>
        <junctions.join value="true"/>
        <junctions.corner-detail value="5"/>
    </junctions>

    <pedestrian>
        <crossings.guess value="true"/>
    </pedestrian>

    <report>
        <verbose value="true"/>
        <aggregate-warnings value="5"/>
    </report>

</configuration>
-->

<net version="1.3" junctionCornerDetail="5" walkingareas="true" limitTurnSpeed="5.50" xmlns:xsi="http://www.w3.org/2001/XMLSchema-instance" xsi:noNamespaceSchemaLocation="http://sumo.dlr.de/xsd/net_file.xsd">

    <location netOffset="-296860.90,-2741090.98" convBoundary="0.00,0.00,1835.52,2593.35" origBoundary="120.990677,24.771227,121.008670,24.794713" projParameter="+proj=utm +zone=51 +ellps=WGS84 +datum=WGS84 +units=m +no_defs"/>

    <type id="highway.bridleway" priority="1" numLanes="1" speed="2.78" allow="pedestrian" oneway="1" width="2.00"/>
    <type id="highway.bus_guideway" priority="1" numLanes="1" speed="13.89" allow="bus" oneway="1"/>
    <type id="highway.cycleway" priority="1" numLanes="1" speed="8.33" allow="bicycle" oneway="0" width="1.00"/>
    <type id="highway.footway" priority="1" numLanes="1" speed="2.78" allow="pedestrian" oneway="1" width="2.00"/>
    <type id="highway.ford" priority="1" numLanes="1" speed="2.78" allow="army" oneway="0"/>
    <type id="highway.living_street" priority="2" numLanes="1" speed="2.78" disallow="tram rail_urban rail rail_electric rail_fast ship" oneway="0"/>
    <type id="highway.motorway" priority="14" numLanes="2" speed="27.78" allow="private emergency authority army vip passenger hov taxi bus coach delivery truck trailer motorcycle evehicle custom1 custom2" oneway="1"/>
    <type id="highway.motorway_link" priority="9" numLanes="1" speed="16.67" allow="private emergency authority army vip passenger hov taxi bus coach delivery truck trailer motorcycle evehicle custom1 custom2" oneway="1"/>
    <type id="highway.path" priority="1" numLanes="1" speed="2.78" allow="pedestrian bicycle" oneway="1" width="2.00"/>
    <type id="highway.pedestrian" priority="1" numLanes="1" speed="2.78" allow="pedestrian" oneway="1" width="2.00"/>
    <type id="highway.primary" priority="12" numLanes="2" speed="13.89" disallow="pedestrian tram rail_urban rail rail_electric rail_fast ship" oneway="0" sidewalkWidth="3.00"/>
    <type id="highway.primary_link" priority="7" numLanes="1" speed="13.89" disallow="pedestrian tram rail_urban rail rail_electric rail_fast ship" oneway="0" sidewalkWidth="3.00"/>
    <type id="highway.raceway" priority="15" numLanes="2" speed="83.33" allow="vip" oneway="0"/>
    <type id="highway.residential" priority="3" numLanes="1" speed="13.89" disallow="pedestrian tram rail_urban rail rail_electric rail_fast ship" oneway="0" sidewalkWidth="2.00"/>
    <type id="highway.secondary" priority="11" numLanes="1" speed="13.89" disallow="pedestrian tram rail_urban rail rail_electric rail_fast ship" oneway="0" sidewalkWidth="3.00"/>
    <type id="highway.secondary_link" priority="6" numLanes="1" speed="13.89" disallow="pedestrian tram rail_urban rail rail_electric rail_fast ship" oneway="0" sidewalkWidth="3.00"/>
    <type id="highway.service" priority="1" numLanes="1" speed="5.56" allow="pedestrian delivery bicycle" oneway="0"/>
    <type id="highway.stairs" priority="1" numLanes="1" speed="1.39" allow="pedestrian" oneway="1" width="2.00"/>
    <type id="highway.step" priority="1" numLanes="1" speed="1.39" allow="pedestrian" oneway="1" width="2.00"/>
    <type id="highway.steps" priority="1" numLanes="1" speed="1.39" allow="pedestrian" oneway="1" width="2.00"/>
    <type id="highway.tertiary" priority="10" numLanes="1" speed="13.89" disallow="pedestrian tram rail_urban rail rail_electric rail_fast ship" oneway="0" sidewalkWidth="3.00"/>
    <type id="highway.tertiary_link" priority="5" numLanes="1" speed="13.89" disallow="pedestrian tram rail_urban rail rail_electric rail_fast ship" oneway="0" sidewalkWidth="2.00"/>
    <type id="highway.track" priority="1" numLanes="1" speed="5.56" disallow="tram rail_urban rail rail_electric rail_fast ship" oneway="0"/>
    <type id="highway.trunk" priority="13" numLanes="2" speed="13.89" disallow="pedestrian bicycle tram rail_urban rail rail_electric rail_fast ship" oneway="0"/>
    <type id="highway.trunk_link" priority="8" numLanes="1" speed="13.89" disallow="pedestrian bicycle tram rail_urban rail rail_electric rail_fast ship" oneway="0"/>
    <type id="highway.unclassified" priority="4" numLanes="1" speed="13.89" disallow="pedestrian tram rail_urban rail rail_electric rail_fast ship" oneway="0" sidewalkWidth="2.00"/>
    <type id="highway.unsurfaced" priority="1" numLanes="1" speed="8.33" disallow="tram rail_urban rail rail_electric rail_fast ship" oneway="0"/>
    <type id="railway.highspeed" priority="21" numLanes="1" speed="69.44" allow="rail_fast" oneway="1"/>
    <type id="railway.light_rail" priority="19" numLanes="1" speed="27.78" allow="rail_urban" oneway="1"/>
    <type id="railway.preserved" priority="16" numLanes="1" speed="27.78" allow="rail" oneway="1"/>
    <type id="railway.rail" priority="20" numLanes="1" speed="44.44" allow="rail" oneway="1"/>
    <type id="railway.subway" priority="18" numLanes="1" speed="27.78" allow="rail_urban" oneway="1"/>
    <type id="railway.tram" priority="17" numLanes="1" speed="13.89" allow="tram" oneway="1"/>

    <edge id=":1076646190_0" function="internal">
        <lane id=":1076646190_0_0" index="0" disallow="pedestrian tram rail_urban rail rail_electric rail_fast ship" speed="3.65" length="4.67" shape="1836.90,2592.55 1836.81,2593.99 1836.32,2594.74 1835.43,2594.79 1834.13,2594.15"/>
    </edge>
    <edge id=":1076646190_w0" function="walkingarea">
        <lane id=":1076646190_w0_0" index="0" allow="pedestrian" speed="1.00" length="8.40" width="2.00" shape="1832.75,2594.96 1831.02,2595.96 1840.02,2590.75 1838.29,2591.75"/>
    </edge>
    <edge id=":1076646363_0" function="internal">
        <lane id=":1076646363_0_0" index="0" disallow="pedestrian tram rail_urban rail rail_electric rail_fast ship" speed="13.89" length="16.14" shape="1066.19,1565.61 1063.44,1561.68 1061.59,1558.97 1059.93,1556.14 1057.73,1551.89"/>
    </edge>
    <edge id=":1076646363_1" function="internal">
        <lane id=":1076646363_1_0" index="0" disallow="pedestrian tram rail_urban rail rail_electric rail_fast ship" speed="7.78" length="6.67" shape="1066.19,1565.61 1063.86,1560.98 1063.89,1559.49"/>
    </edge>
    <edge id=":1076646363_2" function="internal">
        <lane id=":1076646363_2_0" index="0" disallow="pedestrian tram rail_urban rail rail_electric rail_fast ship" speed="3.65" length="2.34" shape="1066.19,1565.61 1066.17,1564.16 1066.60,1563.38"/>
    </edge>
    <edge id=":1076646363_9" function="internal">
        <lane id=":1076646363_9_0" index="0" disallow="pedestrian tram rail_urban rail rail_electric rail_fast ship" speed="7.78" length="10.96" shape="1063.89,1559.49 1063.93,1557.35 1066.42,1554.70 1071.33,1553.03"/>
    </edge>
    <edge id=":1076646363_10" function="internal">
        <lane id=":1076646363_10_0" index="0" disallow="pedestrian tram rail_urban rail rail_electric rail_fast ship" speed="3.65" length="2.34" shape="1066.60,1563.38 1067.48,1563.25 1068.82,1563.78"/>
    </edge>
    <edge id=":1076646363_3" function="internal">
        <lane id=":1076646363_3_0" index="0" disallow="pedestrian tram rail_urban rail rail_electric rail_fast ship" speed="6.20" length="10.67" shape="1071.93,1556.18 1068.96,1557.18 1067.45,1558.79 1067.41,1560.99 1068.82,1563.78"/>
    </edge>
    <edge id=":1076646363_4" function="internal">
        <lane id=":1076646363_4_0" index="0" disallow="pedestrian tram rail_urban rail rail_electric rail_fast ship" speed="9.45" length="15.95" shape="1071.93,1556.18 1066.92,1556.70 1062.88,1556.16 1059.82,1554.56 1057.73,1551.89"/>
    </edge>
    <edge id=":1076646363_5" function="internal">
        <lane id=":1076646363_5_0" index="0" disallow="pedestrian tram rail_urban rail rail_electric rail_fast ship" speed="3.65" length="4.67" shape="1071.93,1556.18 1070.60,1555.62 1070.06,1554.91 1070.30,1554.04 1071.33,1553.03"/>
    </edge>
    <edge id=":1076646363_6" function="internal">
        <lane id=":1076646363_6_0" index="0" disallow="pedestrian tram rail_urban rail rail_electric rail_fast ship" speed="8.20" length="7.87" shape="1060.59,1550.46 1062.05,1552.21 1064.33,1553.22 1067.42,1553.49"/>
    </edge>
    <edge id=":1076646363_7" function="internal">
        <lane id=":1076646363_7_0" index="0" disallow="pedestrian tram rail_urban rail rail_electric rail_fast ship" speed="13.89" length="15.69" shape="1060.59,1550.46 1062.73,1554.59 1064.35,1557.33 1066.15,1559.97 1068.82,1563.78"/>
    </edge>
    <edge id=":1076646363_8" function="internal">
        <lane id=":1076646363_8_0" index="0" disallow="pedestrian tram rail_urban rail rail_electric rail_fast ship" speed="3.65" length="2.34" shape="1060.59,1550.46 1060.41,1551.89 1059.88,1552.61"/>
    </edge>
    <edge id=":1076646363_11" function="internal">
        <lane id=":1076646363_11_0" index="0" disallow="pedestrian tram rail_urban rail rail_electric rail_fast ship" speed="8.20" length="3.93" shape="1067.42,1553.49 1071.33,1553.03"/>
    </edge>
    <edge id=":1076646363_12" function="internal">
        <lane id=":1076646363_12_0" index="0" disallow="pedestrian tram rail_urban rail rail_electric rail_fast ship" speed="3.65" length="2.34" shape="1059.88,1552.61 1058.98,1552.61 1057.73,1551.89"/>
    </edge>
    <edge id=":1076646363_c0" function="crossing" crossingEdges="-256727242#6 256727242#6">
        <lane id=":1076646363_c0_0" index="0" allow="pedestrian" speed="1.00" length="6.40" width="4.00" shape="1069.00,1561.23 1063.74,1564.87"/>
    </edge>
    <edge id=":1076646363_c1" function="crossing" crossingEdges="-92837364 92837364">
        <lane id=":1076646363_c1_0" index="0" allow="pedestrian" speed="1.00" length="6.40" width="4.00" shape="1069.06,1551.84 1070.27,1558.12"/>
    </edge>
    <edge id=":1076646363_c2" function="crossing" crossingEdges="256727242#7 -256727242#7">
        <lane id=":1076646363_c2_0" index="0" allow="pedestrian" speed="1.00" length="6.40" width="4.00" shape="1057.19,1554.40 1062.92,1551.53"/>
    </edge>
    <edge id=":1076646363_w0" function="walkingarea">
        <lane id=":1076646363_w0_0" index="0" allow="pedestrian" speed="1.00" length="10.37" width="4.00" shape="1056.30,1552.61 1054.51,1553.50 1063.24,1567.66 1064.88,1566.52 1062.88,1563.66 1061.40,1561.55 1060.21,1559.78 1059.11,1557.97 1057.88,1555.71"/>
    </edge>
    <edge id=":1076646363_w1" function="walkingarea">
        <lane id=":1076646363_w1_0" index="0" allow="pedestrian" speed="1.00" length="3.36" width="4.00" shape="1070.14,1562.87 1071.78,1561.73 1072.61,1559.71 1072.23,1557.75 1070.79,1558.15 1069.78,1558.74 1069.22,1559.51 1069.09,1560.45 1069.39,1561.57"/>
    </edge>
    <edge id=":1076646363_w2" function="walkingarea">
        <lane id=":1076646363_w2_0" index="0" allow="pedestrian" speed="1.00" length="5.55" width="4.00" shape="1071.03,1551.46 1070.65,1549.50 1063.81,1548.85 1062.02,1549.74 1062.71,1550.66 1063.72,1551.33 1065.06,1551.74 1066.72,1551.90 1068.71,1551.81"/>
    </edge>
    <edge id=":1076646456_0" function="internal">
        <lane id=":1076646456_0_0" index="0" disallow="pedestrian tram rail_urban rail rail_electric rail_fast ship" speed="6.55" length="4.61" shape="1204.49,1536.22 1203.61,1534.00 1202.21,1532.56 1202.01,1532.50"/>
    </edge>
    <edge id=":1076646456_1" function="internal">
        <lane id=":1076646456_1_0" index="0" disallow="pedestrian tram rail_urban rail rail_electric rail_fast ship" speed="13.89" length="14.03" shape="1204.49,1536.22 1201.68,1522.48"/>
    </edge>
    <edge id=":1076646456_2" function="internal">
        <lane id=":1076646456_2_0" index="0" disallow="pedestrian tram rail_urban rail rail_electric rail_fast ship" speed="3.65" length="2.34" shape="1204.49,1536.22 1204.99,1534.87 1205.67,1534.30"/>
    </edge>
    <edge id=":1076646456_9" function="internal">
        <lane id=":1076646456_9_0" index="0" disallow="pedestrian tram rail_urban rail rail_electric rail_fast ship" speed="6.55" length="4.26" shape="1202.01,1532.50 1200.29,1531.91 1197.85,1532.03"/>
    </edge>
    <edge id=":1076646456_10" function="internal">
        <lane id=":1076646456_10_0" index="0" disallow="pedestrian tram rail_urban rail rail_electric rail_fast ship" speed="3.65" length="2.34" shape="1205.67,1534.30 1206.54,1534.50 1207.60,1535.48"/>
    </edge>
    <edge id=":1076646456_3" function="internal">
        <lane id=":1076646456_3_0" index="0" disallow="pedestrian tram rail_urban rail rail_electric rail_fast ship" speed="13.89" length="13.83" shape="1204.83,1521.94 1207.60,1535.48"/>
    </edge>
    <edge id=":1076646456_4" function="internal">
        <lane id=":1076646456_4_0" index="0" disallow="pedestrian tram rail_urban rail rail_electric rail_fast ship" speed="7.99" length="5.57" shape="1204.83,1521.94 1204.94,1525.75 1204.31,1527.39"/>
    </edge>
    <edge id=":1076646456_5" function="internal">
        <lane id=":1076646456_5_0" index="0" disallow="pedestrian tram rail_urban rail rail_electric rail_fast ship" speed="3.65" length="2.34" shape="1204.83,1521.94 1204.25,1523.26 1203.53,1523.79"/>
    </edge>
    <edge id=":1076646456_11" function="internal">
        <lane id=":1076646456_11_0" index="0" disallow="pedestrian tram rail_urban rail rail_electric rail_fast ship" speed="7.99" length="8.37" shape="1204.31,1527.39 1203.82,1528.70 1201.45,1530.79 1197.85,1532.03"/>
    </edge>
    <edge id=":1076646456_12" function="internal">
        <lane id=":1076646456_12_0" index="0" disallow="pedestrian tram rail_urban rail rail_electric rail_fast ship" speed="3.65" length="2.34" shape="1203.53,1523.79 1202.67,1523.53 1201.68,1522.48"/>
    </edge>
    <edge id=":1076646456_6" function="internal">
        <lane id=":1076646456_6_0" index="0" disallow="pedestrian tram rail_urban rail rail_electric rail_fast ship" speed="6.49" length="8.85" shape="1197.24,1528.89 1199.53,1528.10 1201.03,1526.77 1201.75,1524.90 1201.68,1522.48"/>
    </edge>
    <edge id=":1076646456_7" function="internal">
        <lane id=":1076646456_7_0" index="0" disallow="pedestrian tram rail_urban rail rail_electric rail_fast ship" speed="8.04" length="13.87" shape="1197.24,1528.89 1201.04,1528.70 1204.04,1529.73 1206.22,1532.00 1207.60,1535.48"/>
    </edge>
    <edge id=":1076646456_8" function="internal">
        <lane id=":1076646456_8_0" index="0" disallow="pedestrian tram rail_urban rail rail_electric rail_fast ship" speed="3.65" length="4.67" shape="1197.24,1528.89 1198.57,1529.45 1199.12,1530.16 1198.87,1531.02 1197.85,1532.03"/>
    </edge>
    <edge id=":1076646456_c0" function="crossing" crossingEdges="256727242#2 -256727242#2">
        <lane id=":1076646456_c0_0" index="0" allow="pedestrian" speed="1.00" length="6.40" width="4.00" shape="1208.70,1533.17 1202.47,1534.65"/>
    </edge>
    <edge id=":1076646456_c1" function="crossing" crossingEdges="-256727242#1 256727242#1">
        <lane id=":1076646456_c1_0" index="0" allow="pedestrian" speed="1.00" length="6.40" width="4.00" shape="1200.44,1524.73 1206.75,1523.64"/>
    </edge>
    <edge id=":1076646456_c2" function="crossing" crossingEdges="92837364 -92837364">
        <lane id=":1076646456_c2_0" index="0" allow="pedestrian" speed="1.00" length="6.40" width="4.00" shape="1200.11,1533.23 1198.91,1526.94"/>
    </edge>
    <edge id=":1076646456_w0" function="walkingarea">
        <lane id=":1076646456_w0_0" index="0" allow="pedestrian" speed="1.00" length="3.28" width="4.00" shape="1198.15,1533.60 1198.52,1535.57 1200.98,1537.06 1202.93,1536.59 1202.55,1535.47 1202.00,1534.60 1201.29,1533.98 1200.41,1533.60 1199.36,1533.48"/>
    </edge>
    <edge id=":1076646456_w1" function="walkingarea">
        <lane id=":1076646456_w1_0" index="0" allow="pedestrian" speed="1.00" length="8.56" width="4.00" shape="1208.23,1531.22 1209.16,1535.11 1211.10,1534.65 1208.38,1521.33 1206.41,1521.67 1207.09,1525.61"/>
    </edge>
    <edge id=":1076646456_w2" function="walkingarea">
        <lane id=":1076646456_w2_0" index="0" allow="pedestrian" speed="1.00" length="3.23" width="4.00" shape="1200.10,1522.75 1198.13,1523.09 1196.57,1525.35 1196.94,1527.32 1198.09,1526.99 1198.99,1526.49 1199.64,1525.81 1200.04,1524.96 1200.20,1523.95"/>
    </edge>
    <edge id=":1076646542_0" function="internal">
        <lane id=":1076646542_0_0" index="0" allow="delivery bicycle" speed="6.26" length="6.83" shape="1197.69,1650.97 1196.11,1649.11 1194.68,1647.91 1193.41,1647.37 1192.28,1647.51"/>
    </edge>
    <edge id=":1076646542_1" function="internal">
        <lane id=":1076646542_1_0" index="0" allow="delivery bicycle" speed="7.33" length="11.95" shape="1197.69,1650.97 1195.81,1647.80 1195.21,1645.00 1195.90,1642.56 1197.87,1640.49"/>
    </edge>
    <edge id=":1076646542_2" function="internal">
        <lane id=":1076646542_2_0" index="0" allow="pedestrian delivery bicycle" speed="3.65" length="4.67" shape="1197.69,1650.97 1197.61,1649.53 1198.01,1648.73 1198.89,1648.57 1200.25,1649.05"/>
    </edge>
    <edge id=":1076646542_3" function="internal">
        <lane id=":1076646542_3_0" index="0" allow="delivery bicycle" speed="5.68" length="6.74" shape="1199.74,1643.09 1198.81,1644.16 1198.58,1645.51 1199.06,1647.14 1200.25,1649.05"/>
    </edge>
    <edge id=":1076646542_4" function="internal">
        <lane id=":1076646542_4_0" index="0" disallow="pedestrian tram rail_urban rail rail_electric rail_fast ship" speed="13.89" length="8.70" shape="1199.74,1643.09 1197.65,1644.60 1196.18,1645.59 1194.62,1646.43 1192.28,1647.51"/>
    </edge>
    <edge id=":1076646542_5" function="internal">
        <lane id=":1076646542_5_0" index="0" disallow="pedestrian tram rail_urban rail rail_electric rail_fast ship" speed="3.65" length="2.34" shape="1199.74,1643.09 1198.30,1643.14 1197.51,1642.73"/>
    </edge>
    <edge id=":1076646542_9" function="internal">
        <lane id=":1076646542_9_0" index="0" disallow="pedestrian tram rail_urban rail rail_electric rail_fast ship" speed="3.65" length="2.34" shape="1197.51,1642.73 1197.37,1641.84 1197.87,1640.49"/>
    </edge>
    <edge id=":1076646542_6" function="internal">
        <lane id=":1076646542_6_0" index="0" disallow="pedestrian tram rail_urban rail rail_electric rail_fast ship" speed="13.89" length="8.03" shape="1190.99,1644.58 1193.15,1643.59 1194.59,1642.81 1195.94,1641.89 1197.87,1640.49"/>
    </edge>
    <edge id=":1076646542_7" function="internal">
        <lane id=":1076646542_7_0" index="0" allow="delivery bicycle" speed="7.81" length="3.89" shape="1190.99,1644.58 1193.23,1644.13 1194.78,1644.53"/>
    </edge>
    <edge id=":1076646542_8" function="internal">
        <lane id=":1076646542_8_0" index="0" disallow="pedestrian tram rail_urban rail rail_electric rail_fast ship" speed="3.65" length="2.34" shape="1190.99,1644.58 1192.41,1644.83 1193.10,1645.40"/>
    </edge>
    <edge id=":1076646542_10" function="internal">
        <lane id=":1076646542_10_0" index="0" allow="delivery bicycle" speed="7.81" length="7.22" shape="1194.78,1644.53 1195.52,1644.72 1197.86,1646.36 1200.25,1649.05"/>
    </edge>
    <edge id=":1076646542_11" function="internal">
        <lane id=":1076646542_11_0" index="0" disallow="pedestrian tram rail_urban rail rail_electric rail_fast ship" speed="3.65" length="2.34" shape="1193.10,1645.40 1193.05,1646.29 1192.28,1647.51"/>
    </edge>
    <edge id=":1076646542_c0" function="crossing" crossingEdges="-256727242#4 256727242#4">
        <lane id=":1076646542_c0_0" index="0" allow="pedestrian" speed="1.00" length="6.40" width="4.00" shape="1195.32,1640.36 1199.05,1645.56"/>
    </edge>
    <edge id=":1076646542_w0" function="walkingarea">
        <lane id=":1076646542_w0_0" index="0" allow="pedestrian" speed="1.00" length="5.33" width="4.00" shape="1192.92,1648.97 1193.73,1650.80 1196.41,1651.94 1198.97,1650.01 1198.97,1650.01 1201.53,1648.09 1201.84,1646.01 1200.68,1644.39 1199.12,1645.52 1197.96,1646.34 1196.97,1646.98 1195.95,1647.56 1194.67,1648.18"/>
    </edge>
    <edge id=":1076646542_w1" function="walkingarea">
        <lane id=":1076646542_w1_0" index="0" allow="pedestrian" speed="1.00" length="5.13" width="4.00" shape="1196.94,1639.19 1195.77,1637.57 1189.54,1641.28 1190.34,1643.11 1191.83,1642.44 1192.92,1641.91 1193.79,1641.41 1194.63,1640.86 1195.61,1640.15"/>
    </edge>
    <edge id=":1099409255_0" function="internal">
        <lane id=":1099409255_0_0" index="0" disallow="pedestrian tram rail_urban rail rail_electric rail_fast ship" speed="3.65" length="4.67" shape="1513.14,1562.89 1513.48,1564.29 1513.24,1565.15 1512.40,1565.47 1510.98,1565.24"/>
    </edge>
    <edge id=":1099409255_w0" function="walkingarea">
        <lane id=":1099409255_w0_0" index="0" allow="pedestrian" speed="1.00" length="8.40" width="2.00" shape="1509.89,1566.42 1508.54,1567.89 1515.58,1560.24 1514.23,1561.71"/>
    </edge>
    <edge id=":1101582299_0" function="internal">
        <lane id=":1101582299_0_0" index="0" disallow="pedestrian tram rail_urban rail rail_electric rail_fast ship" speed="13.89" length="11.38" shape="1291.28,1879.76 1290.20,1882.97 1289.58,1885.24 1288.72,1887.38 1286.91,1890.18"/>
    </edge>
    <edge id=":1101582299_1" function="internal">
        <lane id=":1101582299_1_0" index="0" disallow="pedestrian tram rail_urban rail rail_electric rail_fast ship" speed="5.13" length="3.76" shape="1291.28,1879.76 1290.37,1881.16 1289.15,1881.51 1288.41,1881.17"/>
    </edge>
    <edge id=":1101582299_4" function="internal">
        <lane id=":1101582299_4_0" index="0" disallow="pedestrian tram rail_urban rail rail_electric rail_fast ship" speed="5.13" length="3.38" shape="1288.41,1881.17 1287.63,1880.82 1285.80,1879.07"/>
    </edge>
    <edge id=":1101582299_2" function="internal">
        <lane id=":1101582299_2_0" index="0" disallow="pedestrian tram rail_urban rail rail_electric rail_fast ship" speed="7.43" length="10.09" shape="1284.34,1888.28 1286.06,1885.49 1286.88,1883.03 1286.79,1880.89 1285.80,1879.07"/>
    </edge>
    <edge id=":1101582299_3" function="internal">
        <lane id=":1101582299_3_0" index="0" disallow="pedestrian tram rail_urban rail rail_electric rail_fast ship" speed="3.65" length="2.22" shape="1284.34,1888.28 1285.69,1887.79 1286.46,1887.92"/>
    </edge>
    <edge id=":1101582299_5" function="internal">
        <lane id=":1101582299_5_0" index="0" disallow="pedestrian tram rail_urban rail rail_electric rail_fast ship" speed="3.65" length="2.45" shape="1286.46,1887.92 1286.57,1887.94 1286.98,1888.74 1286.91,1890.18"/>
    </edge>
    <edge id=":1101582299_c0" function="crossing" crossingEdges="-138080037#1 138080037#1">
        <lane id=":1101582299_c0_0" index="0" allow="pedestrian" speed="1.00" length="6.40" width="4.00" shape="1289.39,1889.52 1284.24,1885.72"/>
    </edge>
    <edge id=":1101582299_w0" function="walkingarea">
        <lane id=":1101582299_w0_0" index="0" allow="pedestrian" speed="1.00" length="8.01" width="4.00" shape="1288.20,1891.13 1289.81,1892.32 1294.63,1881.07 1292.77,1880.34 1291.93,1882.71 1291.41,1884.52 1290.99,1886.02 1290.45,1887.45 1289.60,1889.07"/>
    </edge>
    <edge id=":1101582299_w1" function="walkingarea">
        <lane id=":1101582299_w1_0" index="0" allow="pedestrian" speed="1.00" length="4.45" width="4.00" shape="1284.60,1880.12 1283.09,1881.44 1281.44,1886.14 1283.05,1887.33 1284.09,1885.78 1284.82,1884.37 1285.23,1883.09 1285.33,1881.96 1285.12,1880.97"/>
    </edge>
    <edge id=":1101582632_0" function="internal">
        <lane id=":1101582632_0_0" index="0" disallow="pedestrian tram rail_urban rail rail_electric rail_fast ship" speed="13.89" length="24.64" shape="1102.24,1967.83 1095.72,1969.35 1090.13,1970.49 1084.73,1972.08 1078.77,1974.95"/>
    </edge>
    <edge id=":1101582632_1" function="internal">
        <lane id=":1101582632_1_0" index="0" disallow="pedestrian tram rail_urban rail rail_electric rail_fast ship" speed="7.00" length="5.30" shape="1102.24,1967.83 1097.14,1967.56 1097.00,1967.43"/>
    </edge>
    <edge id=":1101582632_2" function="internal">
        <lane id=":1101582632_2_0" index="0" disallow="pedestrian tram rail_urban rail rail_electric rail_fast ship" speed="3.65" length="2.34" shape="1102.24,1967.83 1100.87,1967.38 1100.27,1966.71"/>
    </edge>
    <edge id=":1101582632_9" function="internal">
        <lane id=":1101582632_9_0" index="0" disallow="pedestrian tram rail_urban rail rail_electric rail_fast ship" speed="7.00" length="14.01" shape="1097.00,1967.43 1093.76,1964.51 1092.86,1960.05 1095.21,1955.53"/>
    </edge>
    <edge id=":1101582632_10" function="internal">
        <lane id=":1101582632_10_0" index="0" disallow="pedestrian tram rail_urban rail rail_electric rail_fast ship" speed="3.65" length="2.34" shape="1100.27,1966.71 1100.44,1965.83 1101.39,1964.74"/>
    </edge>
    <edge id=":1101582632_3" function="internal">
        <lane id=":1101582632_3_0" index="0" disallow="pedestrian tram rail_urban rail rail_electric rail_fast ship" speed="6.77" length="17.91" shape="1097.44,1957.83 1093.35,1962.45 1092.65,1965.15 1095.33,1965.91 1101.39,1964.74"/>
    </edge>
    <edge id=":1101582632_4" function="internal">
        <lane id=":1101582632_4_0" index="0" disallow="pedestrian tram rail_urban rail rail_electric rail_fast ship" speed="13.89" length="25.42" shape="1097.44,1957.83 1092.70,1962.72 1088.65,1967.10 1084.32,1971.12 1078.77,1974.95"/>
    </edge>
    <edge id=":1101582632_5" function="internal">
        <lane id=":1101582632_5_0" index="0" disallow="pedestrian tram rail_urban rail rail_electric rail_fast ship" speed="3.65" length="4.67" shape="1097.44,1957.83 1096.02,1958.09 1095.18,1957.79 1094.91,1956.94 1095.21,1955.53"/>
    </edge>
    <edge id=":1101582632_6" function="internal">
        <lane id=":1101582632_6_0" index="0" disallow="pedestrian tram rail_urban rail rail_electric rail_fast ship" speed="13.89" length="24.66" shape="1077.16,1972.18 1082.61,1968.43 1086.73,1964.57 1090.57,1960.35 1095.21,1955.53"/>
    </edge>
    <edge id=":1101582632_7" function="internal">
        <lane id=":1101582632_7_0" index="0" disallow="pedestrian tram rail_urban rail rail_electric rail_fast ship" speed="13.89" length="25.46" shape="1077.16,1972.18 1083.23,1969.26 1088.89,1967.56 1094.75,1966.32 1101.39,1964.74"/>
    </edge>
    <edge id=":1101582632_8" function="internal">
        <lane id=":1101582632_8_0" index="0" disallow="pedestrian tram rail_urban rail rail_electric rail_fast ship" speed="3.65" length="2.47" shape="1077.16,1972.18 1078.60,1972.27 1079.35,1972.76 1079.36,1972.89"/>
    </edge>
    <edge id=":1101582632_11" function="internal">
        <lane id=":1101582632_11_0" index="0" disallow="pedestrian tram rail_urban rail rail_electric rail_fast ship" speed="3.65" length="2.20" shape="1079.36,1972.89 1079.41,1973.65 1078.77,1974.95"/>
    </edge>
    <edge id=":1101582632_c0" function="crossing" crossingEdges="94874360#2 -94874360#2">
        <lane id=":1101582632_c0_0" index="0" allow="pedestrian" speed="1.00" length="6.40" width="4.00" shape="1099.04,1963.73 1100.73,1969.90"/>
    </edge>
    <edge id=":1101582632_c1" function="crossing" crossingEdges="94874405 -217720906">
        <lane id=":1101582632_c1_0" index="0" allow="pedestrian" speed="1.00" length="6.40" width="4.00" shape="1092.66,1955.77 1097.11,1960.37"/>
    </edge>
    <edge id=":1101582632_c2" function="crossing" crossingEdges="-94874360#1 94874360#1">
        <lane id=":1101582632_c2_0" index="0" allow="pedestrian" speed="1.00" length="6.40" width="4.00" shape="1081.31,1975.32 1078.08,1969.79"/>
    </edge>
    <edge id=":1101582632_w0" function="walkingarea">
        <lane id=":1101582632_w0_0" index="0" allow="pedestrian" speed="1.00" length="15.43" width="4.00" shape="1079.58,1976.33 1080.59,1978.05 1103.19,1971.30 1102.66,1969.37 1097.64,1970.57 1093.82,1971.24 1090.66,1971.77 1087.61,1972.53 1084.10,1973.92"/>
    </edge>
    <edge id=":1101582632_w1" function="walkingarea">
        <lane id=":1101582632_w1_0" index="0" allow="pedestrian" speed="1.00" length="3.23" width="4.00" shape="1100.96,1963.20 1100.43,1961.27 1099.94,1960.41 1098.55,1958.98 1096.66,1960.99 1095.68,1962.48 1095.63,1963.45 1096.49,1963.89 1098.27,1963.81"/>
    </edge>
    <edge id=":1101582632_w2" function="walkingarea">
        <lane id=":1101582632_w2_0" index="0" allow="pedestrian" speed="1.00" length="15.48" width="4.00" shape="1094.10,1954.38 1092.71,1952.94 1075.34,1969.08 1076.35,1970.80 1080.69,1968.05 1083.66,1965.70 1085.88,1963.45 1087.96,1961.02 1090.49,1958.09"/>
    </edge>